
**** 11/12/15 19:43:57 ****** PSpice Lite (October 2012) ****** ID# 10813 ****

 Question 1 part a


 ****     CIRCUIT DESCRIPTION


******************************************************************************



*Plot Vsig, Vi, Vo, Io

*Source
VSigV 1 0 SIN(0 1 10)

*circuit description
RSigR 2 1 50
CCap1 3 2 1uF
RRes1 3 0 100k
RRes2 3 0 100k


GmVi 4 0 3 0 50m
RResD 4 0 10k
CCap2 5 4 1uF
RResL 5 0 10k


*analysis request
.TRAN 1m 1 0 1m

.PLOT TRAN V(1,0) V(5,0)
.PROBE

.END

**** 11/12/15 19:43:57 ****** PSpice Lite (October 2012) ****** ID# 10813 ****

 Question 1 part a


 ****     INITIAL TRANSIENT SOLUTION       TEMPERATURE =   27.000 DEG C


******************************************************************************



 NODE   VOLTAGE     NODE   VOLTAGE     NODE   VOLTAGE     NODE   VOLTAGE


(    1)    0.0000  (    2)    0.0000  (    3)    0.0000  (    4)    0.0000      

(    5)    0.0000  




    VOLTAGE SOURCE CURRENTS
    NAME         CURRENT

    VSigV        0.000E+00

    TOTAL POWER DISSIPATION   0.00E+00  WATTS


**** 11/12/15 19:43:57 ****** PSpice Lite (October 2012) ****** ID# 10813 ****

 Question 1 part a


 ****     TRANSIENT ANALYSIS               TEMPERATURE =   27.000 DEG C


******************************************************************************



 LEGEND:

*: V(1,0)
+: V(5,0)

  TIME        V(1,0)      
(*)----------   -1.0000E+00  -5.0000E-01   0.0000E+00   5.0000E-01   1.0000E+00
(+)----------   -2.0000E+02  -1.0000E+02   0.0000E+00   1.0000E+02   2.0000E+02
                       _ _ _ _ _ _ _ _ _ _ _ _ _ _ _ _ _ _ _ _ _ _ _ _ _ _ _
  0.000E+00  0.000E+00 .            .            X            .            .
  1.000E-03  6.278E-02 .            .          + . *          .            .
  2.000E-03  1.253E-01 .            .        +   .  *         .            .
  3.000E-03  1.873E-01 .            .       +    .    *       .            .
  4.000E-03  2.486E-01 .            .     +      .     *      .            .
  5.000E-03  3.089E-01 .            .    +       .       *    .            .
  6.000E-03  3.680E-01 .            .  +         .         *  .            .
  7.000E-03  4.256E-01 .            . +          .          * .            .
  8.000E-03  4.816E-01 .            .+           .            *            .
  9.000E-03  5.356E-01 .            +            .            .*           .
  1.000E-02  5.876E-01 .            +            .            . *          .
  1.100E-02  6.372E-01 .           +.            .            .   *        .
  1.200E-02  6.843E-01 .           +.            .            .    *       .
  1.300E-02  7.287E-01 .          + .            .            .     *      .
  1.400E-02  7.702E-01 .          + .            .            .      *     .
  1.500E-02  8.087E-01 .          + .            .            .       *    .
  1.600E-02  8.440E-01 .          + .            .            .        *   .
  1.700E-02  8.760E-01 .          + .            .            .         *  .
  1.800E-02  9.045E-01 .           +.            .            .          * .
  1.900E-02  9.294E-01 .           +.            .            .          * .
  2.000E-02  9.507E-01 .           +.            .            .           *.
  2.100E-02  9.682E-01 .            +            .            .           *.
  2.200E-02  9.819E-01 .            .+           .            .            *
  2.300E-02  9.917E-01 .            . +          .            .            *
  2.400E-02  9.976E-01 .            . +          .            .            *
  2.500E-02  9.996E-01 .            .  +         .            .            *
  2.600E-02  9.976E-01 .            .   +        .            .            *
  2.700E-02  9.917E-01 .            .    +       .            .            *
  2.800E-02  9.819E-01 .            .     +      .            .            *
  2.900E-02  9.682E-01 .            .       +    .            .           *.
  3.000E-02  9.507E-01 .            .        +   .            .           *.
  3.100E-02  9.294E-01 .            .         +  .            .          * .
  3.200E-02  9.045E-01 .            .          + .            .          * .
  3.300E-02  8.760E-01 .            .            +            .         *  .
  3.400E-02  8.440E-01 .            .            .+           .        *   .
  3.500E-02  8.087E-01 .            .            . +          .       *    .
  3.600E-02  7.702E-01 .            .            .   +        .      *     .
  3.700E-02  7.287E-01 .            .            .    +       .     *      .
  3.800E-02  6.843E-01 .            .            .     +      .    *       .
  3.900E-02  6.372E-01 .            .            .       +    .   *        .
  4.000E-02  5.876E-01 .            .            .        +   . *          .
  4.100E-02  5.356E-01 .            .            .         +  .*           .
  4.200E-02  4.816E-01 .            .            .           +*            .
  4.300E-02  4.256E-01 .            .            .          * +            .
  4.400E-02  3.680E-01 .            .            .         *  .+           .
  4.500E-02  3.089E-01 .            .            .       *    . +          .
  4.600E-02  2.486E-01 .            .            .     *      .  +         .
  4.700E-02  1.873E-01 .            .            .    *       .   +        .
  4.800E-02  1.253E-01 .            .            .  *         .    +       .
  4.900E-02  6.277E-02 .            .            . *          .     +      .
  5.000E-02  3.709E-06 .            .            *            .      +     .
  5.100E-02 -6.276E-02 .            .          * .            .       +    .
  5.200E-02 -1.253E-01 .            .         *  .            .       +    .
  5.300E-02 -1.873E-01 .            .       *    .            .        +   .
  5.400E-02 -2.486E-01 .            .      *     .            .        +   .
  5.500E-02 -3.089E-01 .            .    *       .            .         +  .
  5.600E-02 -3.680E-01 .            .  *         .            .         +  .
  5.700E-02 -4.256E-01 .            . *          .            .         +  .
  5.800E-02 -4.816E-01 .            *            .            .          + .
  5.900E-02 -5.356E-01 .           *.            .            .          + .
  6.000E-02 -5.876E-01 .          * .            .            .          + .
  6.100E-02 -6.372E-01 .        *   .            .            .         +  .
  6.200E-02 -6.843E-01 .       *    .            .            .         +  .
  6.300E-02 -7.287E-01 .      *     .            .            .         +  .
  6.400E-02 -7.702E-01 .     *      .            .            .         +  .
  6.500E-02 -8.087E-01 .    *       .            .            .        +   .
  6.600E-02 -8.440E-01 .   *        .            .            .       +    .
  6.700E-02 -8.760E-01 .  *         .            .            .       +    .
  6.800E-02 -9.045E-01 . *          .            .            .      +     .
  6.900E-02 -9.294E-01 . *          .            .            .     +      .
  7.000E-02 -9.507E-01 .*           .            .            .    +       .
  7.100E-02 -9.682E-01 .*           .            .            .   +        .
  7.200E-02 -9.819E-01 *            .            .            .  +         .
  7.300E-02 -9.917E-01 *            .            .            . +          .
  7.400E-02 -9.976E-01 *            .            .            .+           .
  7.500E-02 -9.996E-01 *            .            .            +            .
  7.600E-02 -9.976E-01 *            .            .          + .            .
  7.700E-02 -9.917E-01 *            .            .         +  .            .
  7.800E-02 -9.819E-01 *            .            .        +   .            .
  7.900E-02 -9.682E-01 .*           .            .      +     .            .
  8.000E-02 -9.507E-01 .*           .            .     +      .            .
  8.100E-02 -9.294E-01 . *          .            .   +        .            .
  8.200E-02 -9.045E-01 . *          .            .  +         .            .
  8.300E-02 -8.760E-01 .  *         .            .+           .            .
  8.400E-02 -8.440E-01 .   *        .            +            .            .
  8.500E-02 -8.087E-01 .    *       .          + .            .            .
  8.600E-02 -7.702E-01 .     *      .         +  .            .            .
  8.700E-02 -7.287E-01 .      *     .       +    .            .            .
  8.800E-02 -6.843E-01 .       *    .      +     .            .            .
  8.900E-02 -6.372E-01 .        *   .    +       .            .            .
  9.000E-02 -5.876E-01 .          * .   +        .            .            .
  9.100E-02 -5.356E-01 .           *.  +         .            .            .
  9.200E-02 -4.816E-01 .            *+           .            .            .
  9.300E-02 -4.256E-01 .            + *          .            .            .
  9.400E-02 -3.680E-01 .           +.  *         .            .            .
  9.500E-02 -3.089E-01 .         +  .    *       .            .            .
  9.600E-02 -2.486E-01 .        +   .      *     .            .            .
  9.700E-02 -1.873E-01 .       +    .       *    .            .            .
  9.800E-02 -1.253E-01 .      +     .         *  .            .            .
  9.900E-02 -6.277E-02 .     +      .          * .            .            .
  1.000E-01 -3.586E-06 .    +       .            *            .            .
  1.010E-01  6.276E-02 .   +        .            . *          .            .
  1.020E-01  1.253E-01 .   +        .            .  *         .            .
  1.030E-01  1.873E-01 .  +         .            .    *       .            .
  1.040E-01  2.486E-01 .  +         .            .     *      .            .
  1.050E-01  3.089E-01 . +          .            .       *    .            .
  1.060E-01  3.680E-01 . +          .            .         *  .            .
  1.070E-01  4.256E-01 .+           .            .          * .            .
  1.080E-01  4.816E-01 .+           .            .            *            .
  1.090E-01  5.356E-01 .+           .            .            .*           .
  1.100E-01  5.876E-01 .+           .            .            . *          .
  1.110E-01  6.372E-01 .+           .            .            .   *        .
  1.120E-01  6.843E-01 . +          .            .            .    *       .
  1.130E-01  7.287E-01 . +          .            .            .     *      .
  1.140E-01  7.702E-01 . +          .            .            .      *     .
  1.150E-01  8.087E-01 .  +         .            .            .       *    .
  1.160E-01  8.440E-01 .  +         .            .            .        *   .
  1.170E-01  8.760E-01 .   +        .            .            .         *  .
  1.180E-01  9.045E-01 .    +       .            .            .          * .
  1.190E-01  9.294E-01 .     +      .            .            .          * .
  1.200E-01  9.507E-01 .     +      .            .            .           *.
  1.210E-01  9.682E-01 .      +     .            .            .           *.
  1.220E-01  9.819E-01 .        +   .            .            .            *
  1.230E-01  9.917E-01 .         +  .            .            .            *
  1.240E-01  9.976E-01 .          + .            .            .            *
  1.250E-01  9.996E-01 .           +.            .            .            *
  1.260E-01  9.976E-01 .            +            .            .            *
  1.270E-01  9.917E-01 .            . +          .            .            *
  1.280E-01  9.819E-01 .            .  +         .            .            *
  1.290E-01  9.682E-01 .            .    +       .            .           *.
  1.300E-01  9.507E-01 .            .     +      .            .           *.
  1.310E-01  9.294E-01 .            .      +     .            .          * .
  1.320E-01  9.045E-01 .            .        +   .            .          * .
  1.330E-01  8.760E-01 .            .         +  .            .         *  .
  1.340E-01  8.440E-01 .            .           +.            .        *   .
  1.350E-01  8.087E-01 .            .            .+           .       *    .
  1.360E-01  7.702E-01 .            .            . +          .      *     .
  1.370E-01  7.287E-01 .            .            .   +        .     *      .
  1.380E-01  6.843E-01 .            .            .    +       .    *       .
  1.390E-01  6.372E-01 .            .            .      +     .   *        .
  1.400E-01  5.876E-01 .            .            .       +    . *          .
  1.410E-01  5.356E-01 .            .            .        +   .*           .
  1.420E-01  4.816E-01 .            .            .          + *            .
  1.430E-01  4.256E-01 .            .            .          *+.            .
  1.440E-01  3.680E-01 .            .            .         *  +            .
  1.450E-01  3.089E-01 .            .            .       *    . +          .
  1.460E-01  2.486E-01 .            .            .     *      .  +         .
  1.470E-01  1.873E-01 .            .            .    *       .   +        .
  1.480E-01  1.253E-01 .            .            .  *         .    +       .
  1.490E-01  6.277E-02 .            .            . *          .     +      .
  1.500E-01  3.866E-06 .            .            *            .      +     .
  1.510E-01 -6.276E-02 .            .          * .            .       +    .
  1.520E-01 -1.253E-01 .            .         *  .            .       +    .
  1.530E-01 -1.873E-01 .            .       *    .            .        +   .
  1.540E-01 -2.486E-01 .            .      *     .            .         +  .
  1.550E-01 -3.089E-01 .            .    *       .            .         +  .
  1.560E-01 -3.680E-01 .            .  *         .            .         +  .
  1.570E-01 -4.256E-01 .            . *          .            .          + .
  1.580E-01 -4.816E-01 .            *            .            .          + .
  1.590E-01 -5.356E-01 .           *.            .            .          + .
  1.600E-01 -5.876E-01 .          * .            .            .          + .
  1.610E-01 -6.372E-01 .        *   .            .            .          + .
  1.620E-01 -6.843E-01 .       *    .            .            .          + .
  1.630E-01 -7.287E-01 .      *     .            .            .         +  .
  1.640E-01 -7.702E-01 .     *      .            .            .         +  .
  1.650E-01 -8.087E-01 .    *       .            .            .         +  .
  1.660E-01 -8.440E-01 .   *        .            .            .        +   .
  1.670E-01 -8.760E-01 .  *         .            .            .       +    .
  1.680E-01 -9.045E-01 . *          .            .            .       +    .
  1.690E-01 -9.294E-01 . *          .            .            .      +     .
  1.700E-01 -9.507E-01 .*           .            .            .     +      .
  1.710E-01 -9.682E-01 .*           .            .            .    +       .
  1.720E-01 -9.819E-01 *            .            .            .   +        .
  1.730E-01 -9.917E-01 *            .            .            .  +         .
  1.740E-01 -9.976E-01 *            .            .            . +          .
  1.750E-01 -9.996E-01 *            .            .            +            .
  1.760E-01 -9.976E-01 *            .            .           +.            .
  1.770E-01 -9.917E-01 *            .            .          + .            .
  1.780E-01 -9.819E-01 *            .            .        +   .            .
  1.790E-01 -9.682E-01 .*           .            .       +    .            .
  1.800E-01 -9.507E-01 .*           .            .     +      .            .
  1.810E-01 -9.294E-01 . *          .            .    +       .            .
  1.820E-01 -9.045E-01 . *          .            .  +         .            .
  1.830E-01 -8.760E-01 .  *         .            . +          .            .
  1.840E-01 -8.440E-01 .   *        .            +            .            .
  1.850E-01 -8.087E-01 .    *       .           +.            .            .
  1.860E-01 -7.702E-01 .     *      .         +  .            .            .
  1.870E-01 -7.287E-01 .      *     .        +   .            .            .
  1.880E-01 -6.843E-01 .       *    .      +     .            .            .
  1.890E-01 -6.372E-01 .        *   .     +      .            .            .
  1.900E-01 -5.876E-01 .          * .    +       .            .            .
  1.910E-01 -5.356E-01 .           *.  +         .            .            .
  1.920E-01 -4.816E-01 .            * +          .            .            .
  1.930E-01 -4.256E-01 .            + *          .            .            .
  1.940E-01 -3.680E-01 .           +.  *         .            .            .
  1.950E-01 -3.089E-01 .          + .    *       .            .            .
  1.960E-01 -2.486E-01 .         +  .      *     .            .            .
  1.970E-01 -1.873E-01 .        +   .       *    .            .            .
  1.980E-01 -1.253E-01 .       +    .         *  .            .            .
  1.990E-01 -6.277E-02 .      +     .          * .            .            .
  2.000E-01 -3.679E-06 .     +      .            *            .            .
  2.010E-01  6.276E-02 .    +       .            . *          .            .
  2.020E-01  1.253E-01 .   +        .            .  *         .            .
  2.030E-01  1.873E-01 .   +        .            .    *       .            .
  2.040E-01  2.486E-01 .  +         .            .     *      .            .
  2.050E-01  3.089E-01 .  +         .            .       *    .            .
  2.060E-01  3.680E-01 . +          .            .         *  .            .
  2.070E-01  4.256E-01 . +          .            .          * .            .
  2.080E-01  4.816E-01 . +          .            .            *            .
  2.090E-01  5.356E-01 . +          .            .            .*           .
  2.100E-01  5.876E-01 . +          .            .            . *          .
  2.110E-01  6.372E-01 . +          .            .            .   *        .
  2.120E-01  6.843E-01 . +          .            .            .    *       .
  2.130E-01  7.287E-01 . +          .            .            .     *      .
  2.140E-01  7.702E-01 .  +         .            .            .      *     .
  2.150E-01  8.087E-01 .  +         .            .            .       *    .
  2.160E-01  8.440E-01 .   +        .            .            .        *   .
  2.170E-01  8.760E-01 .   +        .            .            .         *  .
  2.180E-01  9.045E-01 .    +       .            .            .          * .
  2.190E-01  9.294E-01 .     +      .            .            .          * .
  2.200E-01  9.507E-01 .      +     .            .            .           *.
  2.210E-01  9.682E-01 .       +    .            .            .           *.
  2.220E-01  9.819E-01 .        +   .            .            .            *
  2.230E-01  9.917E-01 .         +  .            .            .            *
  2.240E-01  9.976E-01 .          + .            .            .            *
  2.250E-01  9.996E-01 .           +.            .            .            *
  2.260E-01  9.976E-01 .            .+           .            .            *
  2.270E-01  9.917E-01 .            . +          .            .            *
  2.280E-01  9.819E-01 .            .  +         .            .            *
  2.290E-01  9.682E-01 .            .    +       .            .           *.
  2.300E-01  9.507E-01 .            .     +      .            .           *.
  2.310E-01  9.294E-01 .            .       +    .            .          * .
  2.320E-01  9.045E-01 .            .        +   .            .          * .
  2.330E-01  8.760E-01 .            .          + .            .         *  .
  2.340E-01  8.440E-01 .            .           +.            .        *   .
  2.350E-01  8.087E-01 .            .            .+           .       *    .
  2.360E-01  7.702E-01 .            .            . +          .      *     .
  2.370E-01  7.287E-01 .            .            .   +        .     *      .
  2.380E-01  6.843E-01 .            .            .    +       .    *       .
  2.390E-01  6.372E-01 .            .            .      +     .   *        .
  2.400E-01  5.876E-01 .            .            .       +    . *          .
  2.410E-01  5.356E-01 .            .            .         +  .*           .
  2.420E-01  4.816E-01 .            .            .          + *            .
  2.430E-01  4.256E-01 .            .            .          *+.            .
  2.440E-01  3.680E-01 .            .            .         *  .+           .
  2.450E-01  3.089E-01 .            .            .       *    . +          .
  2.460E-01  2.486E-01 .            .            .     *      .  +         .
  2.470E-01  1.873E-01 .            .            .    *       .   +        .
  2.480E-01  1.253E-01 .            .            .  *         .    +       .
  2.490E-01  6.277E-02 .            .            . *          .     +      .
  2.500E-01  3.745E-06 .            .            *            .      +     .
  2.510E-01 -6.276E-02 .            .          * .            .       +    .
  2.520E-01 -1.253E-01 .            .         *  .            .        +   .
  2.530E-01 -1.873E-01 .            .       *    .            .        +   .
  2.540E-01 -2.486E-01 .            .      *     .            .         +  .
  2.550E-01 -3.089E-01 .            .    *       .            .         +  .
  2.560E-01 -3.680E-01 .            .  *         .            .          + .
  2.570E-01 -4.256E-01 .            . *          .            .          + .
  2.580E-01 -4.816E-01 .            *            .            .          + .
  2.590E-01 -5.356E-01 .           *.            .            .          + .
  2.600E-01 -5.876E-01 .          * .            .            .          + .
  2.610E-01 -6.372E-01 .        *   .            .            .          + .
  2.620E-01 -6.843E-01 .       *    .            .            .          + .
  2.630E-01 -7.287E-01 .      *     .            .            .          + .
  2.640E-01 -7.702E-01 .     *      .            .            .         +  .
  2.650E-01 -8.087E-01 .    *       .            .            .         +  .
  2.660E-01 -8.440E-01 .   *        .            .            .        +   .
  2.670E-01 -8.760E-01 .  *         .            .            .       +    .
  2.680E-01 -9.045E-01 . *          .            .            .       +    .
  2.690E-01 -9.294E-01 . *          .            .            .      +     .
  2.700E-01 -9.507E-01 .*           .            .            .     +      .
  2.710E-01 -9.682E-01 .*           .            .            .    +       .
  2.720E-01 -9.819E-01 *            .            .            .   +        .
  2.730E-01 -9.917E-01 *            .            .            .  +         .
  2.740E-01 -9.976E-01 *            .            .            . +          .
  2.750E-01 -9.996E-01 *            .            .            +            .
  2.760E-01 -9.976E-01 *            .            .           +.            .
  2.770E-01 -9.917E-01 *            .            .          + .            .
  2.780E-01 -9.819E-01 *            .            .        +   .            .
  2.790E-01 -9.682E-01 .*           .            .       +    .            .
  2.800E-01 -9.507E-01 .*           .            .      +     .            .
  2.810E-01 -9.294E-01 . *          .            .    +       .            .
  2.820E-01 -9.045E-01 . *          .            .   +        .            .
  2.830E-01 -8.760E-01 .  *         .            . +          .            .
  2.840E-01 -8.440E-01 .   *        .            .+           .            .
  2.850E-01 -8.087E-01 .    *       .           +.            .            .
  2.860E-01 -7.702E-01 .     *      .          + .            .            .
  2.870E-01 -7.287E-01 .      *     .        +   .            .            .
  2.880E-01 -6.843E-01 .       *    .       +    .            .            .
  2.890E-01 -6.372E-01 .        *   .     +      .            .            .
  2.900E-01 -5.876E-01 .          * .    +       .            .            .
  2.910E-01 -5.356E-01 .           *.  +         .            .            .
  2.920E-01 -4.816E-01 .            * +          .            .            .
  2.930E-01 -4.256E-01 .            .+*          .            .            .
  2.940E-01 -3.680E-01 .           +.  *         .            .            .
  2.950E-01 -3.089E-01 .          + .    *       .            .            .
  2.960E-01 -2.486E-01 .         +  .      *     .            .            .
  2.970E-01 -1.873E-01 .        +   .       *    .            .            .
  2.980E-01 -1.253E-01 .       +    .         *  .            .            .
  2.990E-01 -6.277E-02 .      +     .          * .            .            .
  3.000E-01 -3.988E-06 .     +      .            *            .            .
  3.010E-01  6.276E-02 .    +       .            . *          .            .
  3.020E-01  1.253E-01 .   +        .            .  *         .            .
  3.030E-01  1.873E-01 .   +        .            .    *       .            .
  3.040E-01  2.486E-01 .  +         .            .     *      .            .
  3.050E-01  3.089E-01 .  +         .            .       *    .            .
  3.060E-01  3.680E-01 . +          .            .         *  .            .
  3.070E-01  4.256E-01 . +          .            .          * .            .
  3.080E-01  4.816E-01 . +          .            .            *            .
  3.090E-01  5.356E-01 . +          .            .            .*           .
  3.100E-01  5.876E-01 . +          .            .            . *          .
  3.110E-01  6.372E-01 . +          .            .            .   *        .
  3.120E-01  6.843E-01 . +          .            .            .    *       .
  3.130E-01  7.287E-01 . +          .            .            .     *      .
  3.140E-01  7.702E-01 .  +         .            .            .      *     .
  3.150E-01  8.087E-01 .  +         .            .            .       *    .
  3.160E-01  8.440E-01 .   +        .            .            .        *   .
  3.170E-01  8.760E-01 .   +        .            .            .         *  .
  3.180E-01  9.045E-01 .    +       .            .            .          * .
  3.190E-01  9.294E-01 .     +      .            .            .          * .
  3.200E-01  9.507E-01 .      +     .            .            .           *.
  3.210E-01  9.682E-01 .       +    .            .            .           *.
  3.220E-01  9.819E-01 .        +   .            .            .            *
  3.230E-01  9.917E-01 .         +  .            .            .            *
  3.240E-01  9.976E-01 .          + .            .            .            *
  3.250E-01  9.996E-01 .            +            .            .            *
  3.260E-01  9.976E-01 .            .+           .            .            *
  3.270E-01  9.917E-01 .            . +          .            .            *
  3.280E-01  9.819E-01 .            .   +        .            .            *
  3.290E-01  9.682E-01 .            .    +       .            .           *.
  3.300E-01  9.507E-01 .            .     +      .            .           *.
  3.310E-01  9.294E-01 .            .       +    .            .          * .
  3.320E-01  9.045E-01 .            .        +   .            .          * .
  3.330E-01  8.760E-01 .            .          + .            .         *  .
  3.340E-01  8.440E-01 .            .           +.            .        *   .
  3.350E-01  8.087E-01 .            .            .+           .       *    .
  3.360E-01  7.702E-01 .            .            . +          .      *     .
  3.370E-01  7.287E-01 .            .            .   +        .     *      .
  3.380E-01  6.843E-01 .            .            .    +       .    *       .
  3.390E-01  6.372E-01 .            .            .      +     .   *        .
  3.400E-01  5.876E-01 .            .            .       +    . *          .
  3.410E-01  5.356E-01 .            .            .         +  .*           .
  3.420E-01  4.816E-01 .            .            .          + *            .
  3.430E-01  4.256E-01 .            .            .          *+.            .
  3.440E-01  3.680E-01 .            .            .         *  .+           .
  3.450E-01  3.089E-01 .            .            .       *    . +          .
  3.460E-01  2.486E-01 .            .            .     *      .  +         .
  3.470E-01  1.873E-01 .            .            .    *       .   +        .
  3.480E-01  1.253E-01 .            .            .  *         .    +       .
  3.490E-01  6.277E-02 .            .            . *          .     +      .
  3.500E-01  3.371E-06 .            .            *            .      +     .
  3.510E-01 -6.276E-02 .            .          * .            .       +    .
  3.520E-01 -1.253E-01 .            .         *  .            .        +   .
  3.530E-01 -1.873E-01 .            .       *    .            .        +   .
  3.540E-01 -2.486E-01 .            .      *     .            .         +  .
  3.550E-01 -3.089E-01 .            .    *       .            .         +  .
  3.560E-01 -3.680E-01 .            .  *         .            .          + .
  3.570E-01 -4.256E-01 .            . *          .            .          + .
  3.580E-01 -4.816E-01 .            *            .            .          + .
  3.590E-01 -5.356E-01 .           *.            .            .          + .
  3.600E-01 -5.876E-01 .          * .            .            .          + .
  3.610E-01 -6.372E-01 .        *   .            .            .          + .
  3.620E-01 -6.843E-01 .       *    .            .            .          + .
  3.630E-01 -7.287E-01 .      *     .            .            .          + .
  3.640E-01 -7.702E-01 .     *      .            .            .         +  .
  3.650E-01 -8.087E-01 .    *       .            .            .         +  .
  3.660E-01 -8.440E-01 .   *        .            .            .        +   .
  3.670E-01 -8.760E-01 .  *         .            .            .       +    .
  3.680E-01 -9.045E-01 . *          .            .            .       +    .
  3.690E-01 -9.294E-01 . *          .            .            .      +     .
  3.700E-01 -9.507E-01 .*           .            .            .     +      .
  3.710E-01 -9.682E-01 .*           .            .            .    +       .
  3.720E-01 -9.819E-01 *            .            .            .   +        .
  3.730E-01 -9.917E-01 *            .            .            .  +         .
  3.740E-01 -9.976E-01 *            .            .            . +          .
  3.750E-01 -9.996E-01 *            .            .            +            .
  3.760E-01 -9.976E-01 *            .            .           +.            .
  3.770E-01 -9.917E-01 *            .            .          + .            .
  3.780E-01 -9.819E-01 *            .            .        +   .            .
  3.790E-01 -9.682E-01 .*           .            .       +    .            .
  3.800E-01 -9.507E-01 .*           .            .      +     .            .
  3.810E-01 -9.294E-01 . *          .            .    +       .            .
  3.820E-01 -9.045E-01 . *          .            .   +        .            .
  3.830E-01 -8.760E-01 .  *         .            . +          .            .
  3.840E-01 -8.440E-01 .   *        .            .+           .            .
  3.850E-01 -8.087E-01 .    *       .           +.            .            .
  3.860E-01 -7.702E-01 .     *      .          + .            .            .
  3.870E-01 -7.287E-01 .      *     .        +   .            .            .
  3.880E-01 -6.843E-01 .       *    .       +    .            .            .
  3.890E-01 -6.372E-01 .        *   .     +      .            .            .
  3.900E-01 -5.876E-01 .          * .    +       .            .            .
  3.910E-01 -5.356E-01 .           *.  +         .            .            .
  3.920E-01 -4.816E-01 .            * +          .            .            .
  3.930E-01 -4.256E-01 .            .+*          .            .            .
  3.940E-01 -3.680E-01 .           +.  *         .            .            .
  3.950E-01 -3.089E-01 .          + .    *       .            .            .
  3.960E-01 -2.486E-01 .         +  .      *     .            .            .
  3.970E-01 -1.873E-01 .        +   .       *    .            .            .
  3.980E-01 -1.253E-01 .       +    .         *  .            .            .
  3.990E-01 -6.277E-02 .      +     .          * .            .            .
  4.000E-01 -3.613E-06 .     +      .            *            .            .
  4.010E-01  6.276E-02 .    +       .            . *          .            .
  4.020E-01  1.253E-01 .   +        .            .  *         .            .
  4.030E-01  1.873E-01 .   +        .            .    *       .            .
  4.040E-01  2.486E-01 .  +         .            .     *      .            .
  4.050E-01  3.089E-01 .  +         .            .       *    .            .
  4.060E-01  3.680E-01 . +          .            .         *  .            .
  4.070E-01  4.256E-01 . +          .            .          * .            .
  4.080E-01  4.816E-01 . +          .            .            *            .
  4.090E-01  5.356E-01 . +          .            .            .*           .
  4.100E-01  5.876E-01 . +          .            .            . *          .
  4.110E-01  6.372E-01 . +          .            .            .   *        .
  4.120E-01  6.843E-01 . +          .            .            .    *       .
  4.130E-01  7.287E-01 . +          .            .            .     *      .
  4.140E-01  7.702E-01 .  +         .            .            .      *     .
  4.150E-01  8.087E-01 .  +         .            .            .       *    .
  4.160E-01  8.440E-01 .   +        .            .            .        *   .
  4.170E-01  8.760E-01 .   +        .            .            .         *  .
  4.180E-01  9.045E-01 .    +       .            .            .          * .
  4.190E-01  9.294E-01 .     +      .            .            .          * .
  4.200E-01  9.507E-01 .      +     .            .            .           *.
  4.210E-01  9.682E-01 .       +    .            .            .           *.
  4.220E-01  9.819E-01 .        +   .            .            .            *
  4.230E-01  9.917E-01 .         +  .            .            .            *
  4.240E-01  9.976E-01 .          + .            .            .            *
  4.250E-01  9.996E-01 .            +            .            .            *
  4.260E-01  9.976E-01 .            .+           .            .            *
  4.270E-01  9.917E-01 .            . +          .            .            *
  4.280E-01  9.819E-01 .            .   +        .            .            *
  4.290E-01  9.682E-01 .            .    +       .            .           *.
  4.300E-01  9.507E-01 .            .     +      .            .           *.
  4.310E-01  9.294E-01 .            .       +    .            .          * .
  4.320E-01  9.045E-01 .            .        +   .            .          * .
  4.330E-01  8.760E-01 .            .          + .            .         *  .
  4.340E-01  8.440E-01 .            .           +.            .        *   .
  4.350E-01  8.087E-01 .            .            .+           .       *    .
  4.360E-01  7.702E-01 .            .            . +          .      *     .
  4.370E-01  7.287E-01 .            .            .   +        .     *      .
  4.380E-01  6.843E-01 .            .            .    +       .    *       .
  4.390E-01  6.372E-01 .            .            .      +     .   *        .
  4.400E-01  5.876E-01 .            .            .       +    . *          .
  4.410E-01  5.356E-01 .            .            .         +  .*           .
  4.420E-01  4.816E-01 .            .            .          + *            .
  4.430E-01  4.256E-01 .            .            .          *+.            .
  4.440E-01  3.680E-01 .            .            .         *  .+           .
  4.450E-01  3.089E-01 .            .            .       *    . +          .
  4.460E-01  2.486E-01 .            .            .     *      .  +         .
  4.470E-01  1.873E-01 .            .            .    *       .   +        .
  4.480E-01  1.253E-01 .            .            .  *         .    +       .
  4.490E-01  6.277E-02 .            .            . *          .     +      .
  4.500E-01  4.362E-06 .            .            *            .      +     .
  4.510E-01 -6.276E-02 .            .          * .            .       +    .
  4.520E-01 -1.253E-01 .            .         *  .            .        +   .
  4.530E-01 -1.873E-01 .            .       *    .            .        +   .
  4.540E-01 -2.486E-01 .            .      *     .            .         +  .
  4.550E-01 -3.089E-01 .            .    *       .            .         +  .
  4.560E-01 -3.680E-01 .            .  *         .            .          + .
  4.570E-01 -4.256E-01 .            . *          .            .          + .
  4.580E-01 -4.816E-01 .            *            .            .          + .
  4.590E-01 -5.356E-01 .           *.            .            .          + .
  4.600E-01 -5.876E-01 .          * .            .            .          + .
  4.610E-01 -6.372E-01 .        *   .            .            .          + .
  4.620E-01 -6.843E-01 .       *    .            .            .          + .
  4.630E-01 -7.287E-01 .      *     .            .            .          + .
  4.640E-01 -7.702E-01 .     *      .            .            .         +  .
  4.650E-01 -8.087E-01 .    *       .            .            .         +  .
  4.660E-01 -8.440E-01 .   *        .            .            .        +   .
  4.670E-01 -8.760E-01 .  *         .            .            .        +   .
  4.680E-01 -9.045E-01 . *          .            .            .       +    .
  4.690E-01 -9.294E-01 . *          .            .            .      +     .
  4.700E-01 -9.507E-01 .*           .            .            .     +      .
  4.710E-01 -9.682E-01 .*           .            .            .    +       .
  4.720E-01 -9.819E-01 *            .            .            .   +        .
  4.730E-01 -9.917E-01 *            .            .            .  +         .
  4.740E-01 -9.976E-01 *            .            .            . +          .
  4.750E-01 -9.996E-01 *            .            .            +            .
  4.760E-01 -9.976E-01 *            .            .           +.            .
  4.770E-01 -9.917E-01 *            .            .          + .            .
  4.780E-01 -9.819E-01 *            .            .        +   .            .
  4.790E-01 -9.682E-01 .*           .            .       +    .            .
  4.800E-01 -9.507E-01 .*           .            .      +     .            .
  4.810E-01 -9.294E-01 . *          .            .    +       .            .
  4.820E-01 -9.045E-01 . *          .            .   +        .            .
  4.830E-01 -8.760E-01 .  *         .            . +          .            .
  4.840E-01 -8.440E-01 .   *        .            .+           .            .
  4.850E-01 -8.087E-01 .    *       .           +.            .            .
  4.860E-01 -7.702E-01 .     *      .          + .            .            .
  4.870E-01 -7.287E-01 .      *     .        +   .            .            .
  4.880E-01 -6.843E-01 .       *    .       +    .            .            .
  4.890E-01 -6.372E-01 .        *   .     +      .            .            .
  4.900E-01 -5.876E-01 .          * .    +       .            .            .
  4.910E-01 -5.356E-01 .           *.  +         .            .            .
  4.920E-01 -4.816E-01 .            * +          .            .            .
  4.930E-01 -4.256E-01 .            .+*          .            .            .
  4.940E-01 -3.680E-01 .           +.  *         .            .            .
  4.950E-01 -3.089E-01 .          + .    *       .            .            .
  4.960E-01 -2.486E-01 .         +  .      *     .            .            .
  4.970E-01 -1.873E-01 .        +   .       *    .            .            .
  4.980E-01 -1.253E-01 .       +    .         *  .            .            .
  4.990E-01 -6.277E-02 .      +     .          * .            .            .
  5.000E-01 -3.745E-06 .     +      .            *            .            .
  5.010E-01  6.276E-02 .    +       .            . *          .            .
  5.020E-01  1.253E-01 .   +        .            .  *         .            .
  5.030E-01  1.873E-01 .   +        .            .    *       .            .
  5.040E-01  2.486E-01 .  +         .            .     *      .            .
  5.050E-01  3.089E-01 .  +         .            .       *    .            .
  5.060E-01  3.680E-01 . +          .            .         *  .            .
  5.070E-01  4.256E-01 . +          .            .          * .            .
  5.080E-01  4.816E-01 . +          .            .            *            .
  5.090E-01  5.356E-01 . +          .            .            .*           .
  5.100E-01  5.876E-01 . +          .            .            . *          .
  5.110E-01  6.372E-01 . +          .            .            .   *        .
  5.120E-01  6.843E-01 . +          .            .            .    *       .
  5.130E-01  7.287E-01 . +          .            .            .     *      .
  5.140E-01  7.702E-01 .  +         .            .            .      *     .
  5.150E-01  8.087E-01 .  +         .            .            .       *    .
  5.160E-01  8.440E-01 .   +        .            .            .        *   .
  5.170E-01  8.760E-01 .   +        .            .            .         *  .
  5.180E-01  9.045E-01 .    +       .            .            .          * .
  5.190E-01  9.294E-01 .     +      .            .            .          * .
  5.200E-01  9.507E-01 .      +     .            .            .           *.
  5.210E-01  9.682E-01 .       +    .            .            .           *.
  5.220E-01  9.819E-01 .        +   .            .            .            *
  5.230E-01  9.917E-01 .         +  .            .            .            *
  5.240E-01  9.976E-01 .          + .            .            .            *
  5.250E-01  9.996E-01 .            +            .            .            *
  5.260E-01  9.976E-01 .            .+           .            .            *
  5.270E-01  9.917E-01 .            . +          .            .            *
  5.280E-01  9.819E-01 .            .   +        .            .            *
  5.290E-01  9.682E-01 .            .    +       .            .           *.
  5.300E-01  9.507E-01 .            .     +      .            .           *.
  5.310E-01  9.294E-01 .            .       +    .            .          * .
  5.320E-01  9.045E-01 .            .        +   .            .          * .
  5.330E-01  8.760E-01 .            .          + .            .         *  .
  5.340E-01  8.440E-01 .            .           +.            .        *   .
  5.350E-01  8.087E-01 .            .            .+           .       *    .
  5.360E-01  7.702E-01 .            .            . +          .      *     .
  5.370E-01  7.287E-01 .            .            .   +        .     *      .
  5.380E-01  6.843E-01 .            .            .    +       .    *       .
  5.390E-01  6.372E-01 .            .            .      +     .   *        .
  5.400E-01  5.876E-01 .            .            .       +    . *          .
  5.410E-01  5.356E-01 .            .            .         +  .*           .
  5.420E-01  4.816E-01 .            .            .          + *            .
  5.430E-01  4.256E-01 .            .            .          *+.            .
  5.440E-01  3.680E-01 .            .            .         *  .+           .
  5.450E-01  3.089E-01 .            .            .       *    . +          .
  5.460E-01  2.486E-01 .            .            .     *      .  +         .
  5.470E-01  1.873E-01 .            .            .    *       .   +        .
  5.480E-01  1.253E-01 .            .            .  *         .    +       .
  5.490E-01  6.277E-02 .            .            . *          .     +      .
  5.500E-01  3.128E-06 .            .            *            .      +     .
  5.510E-01 -6.276E-02 .            .          * .            .       +    .
  5.520E-01 -1.253E-01 .            .         *  .            .        +   .
  5.530E-01 -1.873E-01 .            .       *    .            .        +   .
  5.540E-01 -2.486E-01 .            .      *     .            .         +  .
  5.550E-01 -3.089E-01 .            .    *       .            .         +  .
  5.560E-01 -3.680E-01 .            .  *         .            .          + .
  5.570E-01 -4.256E-01 .            . *          .            .          + .
  5.580E-01 -4.816E-01 .            *            .            .          + .
  5.590E-01 -5.356E-01 .           *.            .            .          + .
  5.600E-01 -5.876E-01 .          * .            .            .          + .
  5.610E-01 -6.372E-01 .        *   .            .            .          + .
  5.620E-01 -6.843E-01 .       *    .            .            .          + .
  5.630E-01 -7.287E-01 .      *     .            .            .          + .
  5.640E-01 -7.702E-01 .     *      .            .            .         +  .
  5.650E-01 -8.087E-01 .    *       .            .            .         +  .
  5.660E-01 -8.440E-01 .   *        .            .            .        +   .
  5.670E-01 -8.760E-01 .  *         .            .            .        +   .
  5.680E-01 -9.045E-01 . *          .            .            .       +    .
  5.690E-01 -9.294E-01 . *          .            .            .      +     .
  5.700E-01 -9.507E-01 .*           .            .            .     +      .
  5.710E-01 -9.682E-01 .*           .            .            .    +       .
  5.720E-01 -9.819E-01 *            .            .            .   +        .
  5.730E-01 -9.917E-01 *            .            .            .  +         .
  5.740E-01 -9.976E-01 *            .            .            . +          .
  5.750E-01 -9.996E-01 *            .            .            +            .
  5.760E-01 -9.976E-01 *            .            .           +.            .
  5.770E-01 -9.917E-01 *            .            .          + .            .
  5.780E-01 -9.819E-01 *            .            .        +   .            .
  5.790E-01 -9.682E-01 .*           .            .       +    .            .
  5.800E-01 -9.507E-01 .*           .            .      +     .            .
  5.810E-01 -9.294E-01 . *          .            .    +       .            .
  5.820E-01 -9.045E-01 . *          .            .   +        .            .
  5.830E-01 -8.760E-01 .  *         .            . +          .            .
  5.840E-01 -8.440E-01 .   *        .            .+           .            .
  5.850E-01 -8.087E-01 .    *       .           +.            .            .
  5.860E-01 -7.702E-01 .     *      .          + .            .            .
  5.870E-01 -7.287E-01 .      *     .        +   .            .            .
  5.880E-01 -6.843E-01 .       *    .       +    .            .            .
  5.890E-01 -6.372E-01 .        *   .     +      .            .            .
  5.900E-01 -5.876E-01 .          * .    +       .            .            .
  5.910E-01 -5.356E-01 .           *.  +         .            .            .
  5.920E-01 -4.816E-01 .            * +          .            .            .
  5.930E-01 -4.256E-01 .            .+*          .            .            .
  5.940E-01 -3.680E-01 .           +.  *         .            .            .
  5.950E-01 -3.089E-01 .          + .    *       .            .            .
  5.960E-01 -2.486E-01 .         +  .      *     .            .            .
  5.970E-01 -1.873E-01 .        +   .       *    .            .            .
  5.980E-01 -1.253E-01 .       +    .         *  .            .            .
  5.990E-01 -6.277E-02 .      +     .          * .            .            .
  6.000E-01 -2.864E-06 .     +      .            *            .            .
  6.010E-01  6.276E-02 .    +       .            . *          .            .
  6.020E-01  1.253E-01 .   +        .            .  *         .            .
  6.030E-01  1.873E-01 .   +        .            .    *       .            .
  6.040E-01  2.486E-01 .  +         .            .     *      .            .
  6.050E-01  3.089E-01 .  +         .            .       *    .            .
  6.060E-01  3.680E-01 . +          .            .         *  .            .
  6.070E-01  4.256E-01 . +          .            .          * .            .
  6.080E-01  4.816E-01 . +          .            .            *            .
  6.090E-01  5.356E-01 . +          .            .            .*           .
  6.100E-01  5.876E-01 . +          .            .            . *          .
  6.110E-01  6.372E-01 . +          .            .            .   *        .
  6.120E-01  6.843E-01 . +          .            .            .    *       .
  6.130E-01  7.287E-01 . +          .            .            .     *      .
  6.140E-01  7.702E-01 .  +         .            .            .      *     .
  6.150E-01  8.087E-01 .  +         .            .            .       *    .
  6.160E-01  8.440E-01 .   +        .            .            .        *   .
  6.170E-01  8.760E-01 .   +        .            .            .         *  .
  6.180E-01  9.045E-01 .    +       .            .            .          * .
  6.190E-01  9.294E-01 .     +      .            .            .          * .
  6.200E-01  9.507E-01 .      +     .            .            .           *.
  6.210E-01  9.682E-01 .       +    .            .            .           *.
  6.220E-01  9.819E-01 .        +   .            .            .            *
  6.230E-01  9.917E-01 .         +  .            .            .            *
  6.240E-01  9.976E-01 .          + .            .            .            *
  6.250E-01  9.996E-01 .            +            .            .            *
  6.260E-01  9.976E-01 .            .+           .            .            *
  6.270E-01  9.917E-01 .            . +          .            .            *
  6.280E-01  9.819E-01 .            .   +        .            .            *
  6.290E-01  9.682E-01 .            .    +       .            .           *.
  6.300E-01  9.507E-01 .            .     +      .            .           *.
  6.310E-01  9.294E-01 .            .       +    .            .          * .
  6.320E-01  9.045E-01 .            .        +   .            .          * .
  6.330E-01  8.760E-01 .            .          + .            .         *  .
  6.340E-01  8.440E-01 .            .           +.            .        *   .
  6.350E-01  8.087E-01 .            .            .+           .       *    .
  6.360E-01  7.702E-01 .            .            . +          .      *     .
  6.370E-01  7.287E-01 .            .            .   +        .     *      .
  6.380E-01  6.843E-01 .            .            .    +       .    *       .
  6.390E-01  6.372E-01 .            .            .      +     .   *        .
  6.400E-01  5.876E-01 .            .            .       +    . *          .
  6.410E-01  5.356E-01 .            .            .         +  .*           .
  6.420E-01  4.816E-01 .            .            .          + *            .
  6.430E-01  4.256E-01 .            .            .          *+.            .
  6.440E-01  3.680E-01 .            .            .         *  .+           .
  6.450E-01  3.089E-01 .            .            .       *    . +          .
  6.460E-01  2.486E-01 .            .            .     *      .  +         .
  6.470E-01  1.873E-01 .            .            .    *       .   +        .
  6.480E-01  1.253E-01 .            .            .  *         .    +       .
  6.490E-01  6.277E-02 .            .            . *          .     +      .
  6.500E-01  3.613E-06 .            .            *            .      +     .
  6.510E-01 -6.276E-02 .            .          * .            .       +    .
  6.520E-01 -1.253E-01 .            .         *  .            .        +   .
  6.530E-01 -1.873E-01 .            .       *    .            .        +   .
  6.540E-01 -2.486E-01 .            .      *     .            .         +  .
  6.550E-01 -3.089E-01 .            .    *       .            .         +  .
  6.560E-01 -3.680E-01 .            .  *         .            .          + .
  6.570E-01 -4.256E-01 .            . *          .            .          + .
  6.580E-01 -4.816E-01 .            *            .            .          + .
  6.590E-01 -5.356E-01 .           *.            .            .          + .
  6.600E-01 -5.876E-01 .          * .            .            .          + .
  6.610E-01 -6.372E-01 .        *   .            .            .          + .
  6.620E-01 -6.843E-01 .       *    .            .            .          + .
  6.630E-01 -7.287E-01 .      *     .            .            .          + .
  6.640E-01 -7.702E-01 .     *      .            .            .         +  .
  6.650E-01 -8.087E-01 .    *       .            .            .         +  .
  6.660E-01 -8.440E-01 .   *        .            .            .        +   .
  6.670E-01 -8.760E-01 .  *         .            .            .        +   .
  6.680E-01 -9.045E-01 . *          .            .            .       +    .
  6.690E-01 -9.294E-01 . *          .            .            .      +     .
  6.700E-01 -9.507E-01 .*           .            .            .     +      .
  6.710E-01 -9.682E-01 .*           .            .            .    +       .
  6.720E-01 -9.819E-01 *            .            .            .   +        .
  6.730E-01 -9.917E-01 *            .            .            .  +         .
  6.740E-01 -9.976E-01 *            .            .            . +          .
  6.750E-01 -9.996E-01 *            .            .            +            .
  6.760E-01 -9.976E-01 *            .            .           +.            .
  6.770E-01 -9.917E-01 *            .            .          + .            .
  6.780E-01 -9.819E-01 *            .            .        +   .            .
  6.790E-01 -9.682E-01 .*           .            .       +    .            .
  6.800E-01 -9.507E-01 .*           .            .      +     .            .
  6.810E-01 -9.294E-01 . *          .            .    +       .            .
  6.820E-01 -9.045E-01 . *          .            .   +        .            .
  6.830E-01 -8.760E-01 .  *         .            . +          .            .
  6.840E-01 -8.440E-01 .   *        .            .+           .            .
  6.850E-01 -8.087E-01 .    *       .           +.            .            .
  6.860E-01 -7.702E-01 .     *      .          + .            .            .
  6.870E-01 -7.287E-01 .      *     .        +   .            .            .
  6.880E-01 -6.843E-01 .       *    .       +    .            .            .
  6.890E-01 -6.372E-01 .        *   .     +      .            .            .
  6.900E-01 -5.876E-01 .          * .    +       .            .            .
  6.910E-01 -5.356E-01 .           *.  +         .            .            .
  6.920E-01 -4.816E-01 .            * +          .            .            .
  6.930E-01 -4.256E-01 .            .+*          .            .            .
  6.940E-01 -3.680E-01 .           +.  *         .            .            .
  6.950E-01 -3.089E-01 .          + .    *       .            .            .
  6.960E-01 -2.486E-01 .         +  .      *     .            .            .
  6.970E-01 -1.873E-01 .        +   .       *    .            .            .
  6.980E-01 -1.253E-01 .       +    .         *  .            .            .
  6.990E-01 -6.277E-02 .      +     .          * .            .            .
  7.000E-01 -4.362E-06 .     +      .            *            .            .
  7.010E-01  6.276E-02 .    +       .            . *          .            .
  7.020E-01  1.253E-01 .   +        .            .  *         .            .
  7.030E-01  1.873E-01 .   +        .            .    *       .            .
  7.040E-01  2.486E-01 .  +         .            .     *      .            .
  7.050E-01  3.089E-01 .  +         .            .       *    .            .
  7.060E-01  3.680E-01 . +          .            .         *  .            .
  7.070E-01  4.256E-01 . +          .            .          * .            .
  7.080E-01  4.816E-01 . +          .            .            *            .
  7.090E-01  5.356E-01 . +          .            .            .*           .
  7.100E-01  5.876E-01 . +          .            .            . *          .
  7.110E-01  6.372E-01 . +          .            .            .   *        .
  7.120E-01  6.843E-01 . +          .            .            .    *       .
  7.130E-01  7.287E-01 . +          .            .            .     *      .
  7.140E-01  7.702E-01 .  +         .            .            .      *     .
  7.150E-01  8.087E-01 .  +         .            .            .       *    .
  7.160E-01  8.440E-01 .   +        .            .            .        *   .
  7.170E-01  8.760E-01 .   +        .            .            .         *  .
  7.180E-01  9.045E-01 .    +       .            .            .          * .
  7.190E-01  9.294E-01 .     +      .            .            .          * .
  7.200E-01  9.507E-01 .      +     .            .            .           *.
  7.210E-01  9.682E-01 .       +    .            .            .           *.
  7.220E-01  9.819E-01 .        +   .            .            .            *
  7.230E-01  9.917E-01 .         +  .            .            .            *
  7.240E-01  9.976E-01 .          + .            .            .            *
  7.250E-01  9.996E-01 .            +            .            .            *
  7.260E-01  9.976E-01 .            .+           .            .            *
  7.270E-01  9.917E-01 .            . +          .            .            *
  7.280E-01  9.819E-01 .            .   +        .            .            *
  7.290E-01  9.682E-01 .            .    +       .            .           *.
  7.300E-01  9.507E-01 .            .     +      .            .           *.
  7.310E-01  9.294E-01 .            .       +    .            .          * .
  7.320E-01  9.045E-01 .            .        +   .            .          * .
  7.330E-01  8.760E-01 .            .          + .            .         *  .
  7.340E-01  8.440E-01 .            .           +.            .        *   .
  7.350E-01  8.087E-01 .            .            .+           .       *    .
  7.360E-01  7.702E-01 .            .            . +          .      *     .
  7.370E-01  7.287E-01 .            .            .   +        .     *      .
  7.380E-01  6.843E-01 .            .            .    +       .    *       .
  7.390E-01  6.372E-01 .            .            .      +     .   *        .
  7.400E-01  5.876E-01 .            .            .       +    . *          .
  7.410E-01  5.356E-01 .            .            .         +  .*           .
  7.420E-01  4.816E-01 .            .            .          + *            .
  7.430E-01  4.256E-01 .            .            .          *+.            .
  7.440E-01  3.680E-01 .            .            .         *  .+           .
  7.450E-01  3.089E-01 .            .            .       *    . +          .
  7.460E-01  2.486E-01 .            .            .     *      .  +         .
  7.470E-01  1.873E-01 .            .            .    *       .   +        .
  7.480E-01  1.253E-01 .            .            .  *         .    +       .
  7.490E-01  6.277E-02 .            .            . *          .     +      .
  7.500E-01  5.111E-06 .            .            *            .      +     .
  7.510E-01 -6.276E-02 .            .          * .            .       +    .
  7.520E-01 -1.253E-01 .            .         *  .            .        +   .
  7.530E-01 -1.873E-01 .            .       *    .            .        +   .
  7.540E-01 -2.486E-01 .            .      *     .            .         +  .
  7.550E-01 -3.089E-01 .            .    *       .            .         +  .
  7.560E-01 -3.680E-01 .            .  *         .            .          + .
  7.570E-01 -4.256E-01 .            . *          .            .          + .
  7.580E-01 -4.816E-01 .            *            .            .          + .
  7.590E-01 -5.356E-01 .           *.            .            .          + .
  7.600E-01 -5.876E-01 .          * .            .            .          + .
  7.610E-01 -6.372E-01 .        *   .            .            .          + .
  7.620E-01 -6.843E-01 .       *    .            .            .          + .
  7.630E-01 -7.287E-01 .      *     .            .            .          + .
  7.640E-01 -7.702E-01 .     *      .            .            .         +  .
  7.650E-01 -8.087E-01 .    *       .            .            .         +  .
  7.660E-01 -8.440E-01 .   *        .            .            .        +   .
  7.670E-01 -8.760E-01 .  *         .            .            .        +   .
  7.680E-01 -9.045E-01 . *          .            .            .       +    .
  7.690E-01 -9.294E-01 . *          .            .            .      +     .
  7.700E-01 -9.507E-01 .*           .            .            .     +      .
  7.710E-01 -9.682E-01 .*           .            .            .    +       .
  7.720E-01 -9.819E-01 *            .            .            .   +        .
  7.730E-01 -9.917E-01 *            .            .            .  +         .
  7.740E-01 -9.976E-01 *            .            .            . +          .
  7.750E-01 -9.996E-01 *            .            .            +            .
  7.760E-01 -9.976E-01 *            .            .           +.            .
  7.770E-01 -9.917E-01 *            .            .          + .            .
  7.780E-01 -9.819E-01 *            .            .        +   .            .
  7.790E-01 -9.682E-01 .*           .            .       +    .            .
  7.800E-01 -9.507E-01 .*           .            .      +     .            .
  7.810E-01 -9.294E-01 . *          .            .    +       .            .
  7.820E-01 -9.045E-01 . *          .            .   +        .            .
  7.830E-01 -8.760E-01 .  *         .            . +          .            .
  7.840E-01 -8.440E-01 .   *        .            .+           .            .
  7.850E-01 -8.087E-01 .    *       .           +.            .            .
  7.860E-01 -7.702E-01 .     *      .          + .            .            .
  7.870E-01 -7.287E-01 .      *     .        +   .            .            .
  7.880E-01 -6.843E-01 .       *    .       +    .            .            .
  7.890E-01 -6.372E-01 .        *   .     +      .            .            .
  7.900E-01 -5.876E-01 .          * .    +       .            .            .
  7.910E-01 -5.356E-01 .           *.  +         .            .            .
  7.920E-01 -4.816E-01 .            * +          .            .            .
  7.930E-01 -4.256E-01 .            .+*          .            .            .
  7.940E-01 -3.680E-01 .           +.  *         .            .            .
  7.950E-01 -3.089E-01 .          + .    *       .            .            .
  7.960E-01 -2.486E-01 .         +  .      *     .            .            .
  7.970E-01 -1.873E-01 .        +   .       *    .            .            .
  7.980E-01 -1.253E-01 .       +    .         *  .            .            .
  7.990E-01 -6.277E-02 .      +     .          * .            .            .
  8.000E-01 -3.128E-06 .     +      .            *            .            .
  8.010E-01  6.276E-02 .    +       .            . *          .            .
  8.020E-01  1.253E-01 .   +        .            .  *         .            .
  8.030E-01  1.873E-01 .   +        .            .    *       .            .
  8.040E-01  2.486E-01 .  +         .            .     *      .            .
  8.050E-01  3.089E-01 .  +         .            .       *    .            .
  8.060E-01  3.680E-01 . +          .            .         *  .            .
  8.070E-01  4.256E-01 . +          .            .          * .            .
  8.080E-01  4.816E-01 . +          .            .            *            .
  8.090E-01  5.356E-01 . +          .            .            .*           .
  8.100E-01  5.876E-01 . +          .            .            . *          .
  8.110E-01  6.372E-01 . +          .            .            .   *        .
  8.120E-01  6.843E-01 . +          .            .            .    *       .
  8.130E-01  7.287E-01 . +          .            .            .     *      .
  8.140E-01  7.702E-01 .  +         .            .            .      *     .
  8.150E-01  8.087E-01 .  +         .            .            .       *    .
  8.160E-01  8.440E-01 .   +        .            .            .        *   .
  8.170E-01  8.760E-01 .   +        .            .            .         *  .
  8.180E-01  9.045E-01 .    +       .            .            .          * .
  8.190E-01  9.294E-01 .     +      .            .            .          * .
  8.200E-01  9.507E-01 .      +     .            .            .           *.
  8.210E-01  9.682E-01 .       +    .            .            .           *.
  8.220E-01  9.819E-01 .        +   .            .            .            *
  8.230E-01  9.917E-01 .         +  .            .            .            *
  8.240E-01  9.976E-01 .          + .            .            .            *
  8.250E-01  9.996E-01 .            +            .            .            *
  8.260E-01  9.976E-01 .            .+           .            .            *
  8.270E-01  9.917E-01 .            . +          .            .            *
  8.280E-01  9.819E-01 .            .   +        .            .            *
  8.290E-01  9.682E-01 .            .    +       .            .           *.
  8.300E-01  9.507E-01 .            .     +      .            .           *.
  8.310E-01  9.294E-01 .            .       +    .            .          * .
  8.320E-01  9.045E-01 .            .        +   .            .          * .
  8.330E-01  8.760E-01 .            .          + .            .         *  .
  8.340E-01  8.440E-01 .            .           +.            .        *   .
  8.350E-01  8.087E-01 .            .            .+           .       *    .
  8.360E-01  7.702E-01 .            .            . +          .      *     .
  8.370E-01  7.287E-01 .            .            .   +        .     *      .
  8.380E-01  6.843E-01 .            .            .    +       .    *       .
  8.390E-01  6.372E-01 .            .            .      +     .   *        .
  8.400E-01  5.876E-01 .            .            .       +    . *          .
  8.410E-01  5.356E-01 .            .            .         +  .*           .
  8.420E-01  4.816E-01 .            .            .          + *            .
  8.430E-01  4.256E-01 .            .            .          *+.            .
  8.440E-01  3.680E-01 .            .            .         *  .+           .
  8.450E-01  3.089E-01 .            .            .       *    . +          .
  8.460E-01  2.486E-01 .            .            .     *      .  +         .
  8.470E-01  1.873E-01 .            .            .    *       .   +        .
  8.480E-01  1.253E-01 .            .            .  *         .    +       .
  8.490E-01  6.277E-02 .            .            . *          .     +      .
  8.500E-01  2.864E-06 .            .            *            .      +     .
  8.510E-01 -6.276E-02 .            .          * .            .       +    .
  8.520E-01 -1.253E-01 .            .         *  .            .        +   .
  8.530E-01 -1.873E-01 .            .       *    .            .        +   .
  8.540E-01 -2.486E-01 .            .      *     .            .         +  .
  8.550E-01 -3.089E-01 .            .    *       .            .         +  .
  8.560E-01 -3.680E-01 .            .  *         .            .          + .
  8.570E-01 -4.256E-01 .            . *          .            .          + .
  8.580E-01 -4.816E-01 .            *            .            .          + .
  8.590E-01 -5.356E-01 .           *.            .            .          + .
  8.600E-01 -5.876E-01 .          * .            .            .          + .
  8.610E-01 -6.372E-01 .        *   .            .            .          + .
  8.620E-01 -6.843E-01 .       *    .            .            .          + .
  8.630E-01 -7.287E-01 .      *     .            .            .          + .
  8.640E-01 -7.702E-01 .     *      .            .            .         +  .
  8.650E-01 -8.087E-01 .    *       .            .            .         +  .
  8.660E-01 -8.440E-01 .   *        .            .            .        +   .
  8.670E-01 -8.760E-01 .  *         .            .            .        +   .
  8.680E-01 -9.045E-01 . *          .            .            .       +    .
  8.690E-01 -9.294E-01 . *          .            .            .      +     .
  8.700E-01 -9.507E-01 .*           .            .            .     +      .
  8.710E-01 -9.682E-01 .*           .            .            .    +       .
  8.720E-01 -9.819E-01 *            .            .            .   +        .
  8.730E-01 -9.917E-01 *            .            .            .  +         .
  8.740E-01 -9.976E-01 *            .            .            . +          .
  8.750E-01 -9.996E-01 *            .            .            +            .
  8.760E-01 -9.976E-01 *            .            .           +.            .
  8.770E-01 -9.917E-01 *            .            .          + .            .
  8.780E-01 -9.819E-01 *            .            .        +   .            .
  8.790E-01 -9.682E-01 .*           .            .       +    .            .
  8.800E-01 -9.507E-01 .*           .            .      +     .            .
  8.810E-01 -9.294E-01 . *          .            .    +       .            .
  8.820E-01 -9.045E-01 . *          .            .   +        .            .
  8.830E-01 -8.760E-01 .  *         .            . +          .            .
  8.840E-01 -8.440E-01 .   *        .            .+           .            .
  8.850E-01 -8.087E-01 .    *       .           +.            .            .
  8.860E-01 -7.702E-01 .     *      .          + .            .            .
  8.870E-01 -7.287E-01 .      *     .        +   .            .            .
  8.880E-01 -6.843E-01 .       *    .       +    .            .            .
  8.890E-01 -6.372E-01 .        *   .     +      .            .            .
  8.900E-01 -5.876E-01 .          * .    +       .            .            .
  8.910E-01 -5.356E-01 .           *.  +         .            .            .
  8.920E-01 -4.816E-01 .            * +          .            .            .
  8.930E-01 -4.256E-01 .            .+*          .            .            .
  8.940E-01 -3.680E-01 .           +.  *         .            .            .
  8.950E-01 -3.089E-01 .          + .    *       .            .            .
  8.960E-01 -2.486E-01 .         +  .      *     .            .            .
  8.970E-01 -1.873E-01 .        +   .       *    .            .            .
  8.980E-01 -1.253E-01 .       +    .         *  .            .            .
  8.990E-01 -6.277E-02 .      +     .          * .            .            .
  9.000E-01 -3.613E-06 .     +      .            *            .            .
  9.010E-01  6.276E-02 .    +       .            . *          .            .
  9.020E-01  1.253E-01 .   +        .            .  *         .            .
  9.030E-01  1.873E-01 .   +        .            .    *       .            .
  9.040E-01  2.486E-01 .  +         .            .     *      .            .
  9.050E-01  3.089E-01 .  +         .            .       *    .            .
  9.060E-01  3.680E-01 . +          .            .         *  .            .
  9.070E-01  4.256E-01 . +          .            .          * .            .
  9.080E-01  4.816E-01 . +          .            .            *            .
  9.090E-01  5.356E-01 . +          .            .            .*           .
  9.100E-01  5.876E-01 . +          .            .            . *          .
  9.110E-01  6.372E-01 . +          .            .            .   *        .
  9.120E-01  6.843E-01 . +          .            .            .    *       .
  9.130E-01  7.287E-01 . +          .            .            .     *      .
  9.140E-01  7.702E-01 .  +         .            .            .      *     .
  9.150E-01  8.087E-01 .  +         .            .            .       *    .
  9.160E-01  8.440E-01 .   +        .            .            .        *   .
  9.170E-01  8.760E-01 .   +        .            .            .         *  .
  9.180E-01  9.045E-01 .    +       .            .            .          * .
  9.190E-01  9.294E-01 .     +      .            .            .          * .
  9.200E-01  9.507E-01 .      +     .            .            .           *.
  9.210E-01  9.682E-01 .       +    .            .            .           *.
  9.220E-01  9.819E-01 .        +   .            .            .            *
  9.230E-01  9.917E-01 .         +  .            .            .            *
  9.240E-01  9.976E-01 .          + .            .            .            *
  9.250E-01  9.996E-01 .            +            .            .            *
  9.260E-01  9.976E-01 .            .+           .            .            *
  9.270E-01  9.917E-01 .            . +          .            .            *
  9.280E-01  9.819E-01 .            .   +        .            .            *
  9.290E-01  9.682E-01 .            .    +       .            .           *.
  9.300E-01  9.507E-01 .            .     +      .            .           *.
  9.310E-01  9.294E-01 .            .       +    .            .          * .
  9.320E-01  9.045E-01 .            .        +   .            .          * .
  9.330E-01  8.760E-01 .            .          + .            .         *  .
  9.340E-01  8.440E-01 .            .           +.            .        *   .
  9.350E-01  8.087E-01 .            .            .+           .       *    .
  9.360E-01  7.702E-01 .            .            . +          .      *     .
  9.370E-01  7.287E-01 .            .            .   +        .     *      .
  9.380E-01  6.843E-01 .            .            .    +       .    *       .
  9.390E-01  6.372E-01 .            .            .      +     .   *        .
  9.400E-01  5.876E-01 .            .            .       +    . *          .
  9.410E-01  5.356E-01 .            .            .         +  .*           .
  9.420E-01  4.816E-01 .            .            .          + *            .
  9.430E-01  4.256E-01 .            .            .          *+.            .
  9.440E-01  3.680E-01 .            .            .         *  .+           .
  9.450E-01  3.089E-01 .            .            .       *    . +          .
  9.460E-01  2.486E-01 .            .            .     *      .  +         .
  9.470E-01  1.873E-01 .            .            .    *       .   +        .
  9.480E-01  1.253E-01 .            .            .  *         .    +       .
  9.490E-01  6.277E-02 .            .            . *          .     +      .
  9.500E-01  4.362E-06 .            .            *            .      +     .
  9.510E-01 -6.276E-02 .            .          * .            .       +    .
  9.520E-01 -1.253E-01 .            .         *  .            .        +   .
  9.530E-01 -1.873E-01 .            .       *    .            .        +   .
  9.540E-01 -2.486E-01 .            .      *     .            .         +  .
  9.550E-01 -3.089E-01 .            .    *       .            .         +  .
  9.560E-01 -3.680E-01 .            .  *         .            .          + .
  9.570E-01 -4.256E-01 .            . *          .            .          + .
  9.580E-01 -4.816E-01 .            *            .            .          + .
  9.590E-01 -5.356E-01 .           *.            .            .          + .
  9.600E-01 -5.876E-01 .          * .            .            .          + .
  9.610E-01 -6.372E-01 .        *   .            .            .          + .
  9.620E-01 -6.843E-01 .       *    .            .            .          + .
  9.630E-01 -7.287E-01 .      *     .            .            .          + .
  9.640E-01 -7.702E-01 .     *      .            .            .         +  .
  9.650E-01 -8.087E-01 .    *       .            .            .         +  .
  9.660E-01 -8.440E-01 .   *        .            .            .        +   .
  9.670E-01 -8.760E-01 .  *         .            .            .        +   .
  9.680E-01 -9.045E-01 . *          .            .            .       +    .
  9.690E-01 -9.294E-01 . *          .            .            .      +     .
  9.700E-01 -9.507E-01 .*           .            .            .     +      .
  9.710E-01 -9.682E-01 .*           .            .            .    +       .
  9.720E-01 -9.819E-01 *            .            .            .   +        .
  9.730E-01 -9.917E-01 *            .            .            .  +         .
  9.740E-01 -9.976E-01 *            .            .            . +          .
  9.750E-01 -9.996E-01 *            .            .            +            .
  9.760E-01 -9.976E-01 *            .            .           +.            .
  9.770E-01 -9.917E-01 *            .            .          + .            .
  9.780E-01 -9.819E-01 *            .            .        +   .            .
  9.790E-01 -9.682E-01 .*           .            .       +    .            .
  9.800E-01 -9.507E-01 .*           .            .      +     .            .
  9.810E-01 -9.294E-01 . *          .            .    +       .            .
  9.820E-01 -9.045E-01 . *          .            .   +        .            .
  9.830E-01 -8.760E-01 .  *         .            . +          .            .
  9.840E-01 -8.440E-01 .   *        .            .+           .            .
  9.850E-01 -8.087E-01 .    *       .           +.            .            .
  9.860E-01 -7.702E-01 .     *      .          + .            .            .
  9.870E-01 -7.287E-01 .      *     .        +   .            .            .
  9.880E-01 -6.843E-01 .       *    .       +    .            .            .
  9.890E-01 -6.372E-01 .        *   .     +      .            .            .
  9.900E-01 -5.876E-01 .          * .    +       .            .            .
  9.910E-01 -5.356E-01 .           *.  +         .            .            .
  9.920E-01 -4.816E-01 .            * +          .            .            .
  9.930E-01 -4.256E-01 .            .+*          .            .            .
  9.940E-01 -3.680E-01 .           +.  *         .            .            .
  9.950E-01 -3.089E-01 .          + .    *       .            .            .
  9.960E-01 -2.486E-01 .         +  .      *     .            .            .
  9.970E-01 -1.873E-01 .        +   .       *    .            .            .
  9.980E-01 -1.253E-01 .       +    .         *  .            .            .
  9.990E-01 -6.277E-02 .      +     .          * .            .            .
  1.000E+00 -2.449E-15 .     +      .            *            .            .
                       - - - - - - - - - - - - - - - - - - - - - - - - - - - 




          JOB CONCLUDED

**** 11/12/15 19:43:57 ****** PSpice Lite (October 2012) ****** ID# 10813 ****

 Question 1 part a


 ****     JOB STATISTICS SUMMARY


******************************************************************************



  Total job time (using Solver 1)   =         .03
