
**** 11/16/15 21:15:38 ****** PSpice Lite (October 2012) ****** ID# 10813 ****

 Operational Amplifier Model


 ****     CIRCUIT DESCRIPTION


******************************************************************************



**      CIRCUIT DESCRIPTION**
*POWER SUPPLY*
Vin-diff 6 0 SIN(0 5m 1k 0 0)
Vcm 5 0 1
EV1 1 5 6 0 0.5
EV2 5 2 6 0 0.5



*ELEMENTS*
X1 1 2 3 OPAMP
RL 3 0 1K
R1 6 0 1K


**ANALYSIS REQUESTS**
.TRAN 1u 1m 0 1u

**OUTPUT REQUEST**
.PLOT TRAN V(1,0) V(6,0)
.PROBE



*             non-inverting input
*             | inverting input
*             | | output
*             | | |
.SUBCKT OPAMP 1 2 3


*CIRCUIT DESCRIPTION

*SOURCE
EV3 4 0 1 2 10K
Rin 1 2 1MEG
Rout 4 3 50


.ENDS OPAMP

.END

**** 11/16/15 21:15:38 ****** PSpice Lite (October 2012) ****** ID# 10813 ****

 Operational Amplifier Model


 ****     INITIAL TRANSIENT SOLUTION       TEMPERATURE =   27.000 DEG C


******************************************************************************



 NODE   VOLTAGE     NODE   VOLTAGE     NODE   VOLTAGE     NODE   VOLTAGE


(    1)    1.0000  (    2)    1.0000  (    3)    0.0000  (    5)    1.0000      

(    6)    0.0000  ( X1.4)    0.0000  




    VOLTAGE SOURCE CURRENTS
    NAME         CURRENT

    Vin-diff     0.000E+00
    Vcm          0.000E+00

    TOTAL POWER DISSIPATION   0.00E+00  WATTS


**** 11/16/15 21:15:38 ****** PSpice Lite (October 2012) ****** ID# 10813 ****

 Operational Amplifier Model


 ****     TRANSIENT ANALYSIS               TEMPERATURE =   27.000 DEG C


******************************************************************************



 LEGEND:

*: V(1,0)
+: V(6,0)

  TIME        V(1,0)      
(*)----------    9.9600E-01   9.9800E-01   1.0000E+00   1.0020E+00   1.0040E+00
(+)----------   -1.0000E-02  -5.0000E-03   0.0000E+00   5.0000E-03   1.0000E-02
                       _ _ _ _ _ _ _ _ _ _ _ _ _ _ _ _ _ _ _ _ _ _ _ _ _ _ _
  0.000E+00  1.000E+00 .            .            X            .            .
  1.000E-06  1.000E+00 .            .            X            .            .
  2.000E-06  1.000E+00 .            .            X            .            .
  3.000E-06  1.000E+00 .            .            X            .            .
  4.000E-06  1.000E+00 .            .            X            .            .
  5.000E-06  1.000E+00 .            .            +*           .            .
  6.000E-06  1.000E+00 .            .            +*           .            .
  7.000E-06  1.000E+00 .            .            .X           .            .
  8.000E-06  1.000E+00 .            .            .X           .            .
  9.000E-06  1.000E+00 .            .            .X           .            .
  1.000E-05  1.000E+00 .            .            .X           .            .
  1.100E-05  1.000E+00 .            .            .X           .            .
  1.200E-05  1.000E+00 .            .            .X           .            .
  1.300E-05  1.000E+00 .            .            .X           .            .
  1.400E-05  1.000E+00 .            .            .X           .            .
  1.500E-05  1.000E+00 .            .            .+*          .            .
  1.600E-05  1.000E+00 .            .            .+*          .            .
  1.700E-05  1.000E+00 .            .            .+*          .            .
  1.800E-05  1.000E+00 .            .            .+*          .            .
  1.900E-05  1.000E+00 .            .            . X          .            .
  2.000E-05  1.000E+00 .            .            . X          .            .
  2.100E-05  1.000E+00 .            .            . X          .            .
  2.200E-05  1.000E+00 .            .            . X          .            .
  2.300E-05  1.000E+00 .            .            . X          .            .
  2.400E-05  1.000E+00 .            .            . X          .            .
  2.500E-05  1.000E+00 .            .            . +*         .            .
  2.600E-05  1.000E+00 .            .            . +*         .            .
  2.700E-05  1.000E+00 .            .            . +*         .            .
  2.800E-05  1.000E+00 .            .            . +*         .            .
  2.900E-05  1.000E+00 .            .            . +*         .            .
  3.000E-05  1.000E+00 .            .            . +*         .            .
  3.100E-05  1.000E+00 .            .            .  X         .            .
  3.200E-05  1.001E+00 .            .            .  X         .            .
  3.300E-05  1.001E+00 .            .            .  X         .            .
  3.400E-05  1.001E+00 .            .            .  X         .            .
  3.500E-05  1.001E+00 .            .            .  +*        .            .
  3.600E-05  1.001E+00 .            .            .  +*        .            .
  3.700E-05  1.001E+00 .            .            .  +*        .            .
  3.800E-05  1.001E+00 .            .            .  +*        .            .
  3.900E-05  1.001E+00 .            .            .  +*        .            .
  4.000E-05  1.001E+00 .            .            .  +*        .            .
  4.100E-05  1.001E+00 .            .            .  +*        .            .
  4.200E-05  1.001E+00 .            .            .  +*        .            .
  4.300E-05  1.001E+00 .            .            .  +*        .            .
  4.400E-05  1.001E+00 .            .            .   X        .            .
  4.500E-05  1.001E+00 .            .            .   +*       .            .
  4.600E-05  1.001E+00 .            .            .   +*       .            .
  4.700E-05  1.001E+00 .            .            .   +*       .            .
  4.800E-05  1.001E+00 .            .            .   +*       .            .
  4.900E-05  1.001E+00 .            .            .   +*       .            .
  5.000E-05  1.001E+00 .            .            .   +*       .            .
  5.100E-05  1.001E+00 .            .            .   +*       .            .
  5.200E-05  1.001E+00 .            .            .   +*       .            .
  5.300E-05  1.001E+00 .            .            .   +*       .            .
  5.400E-05  1.001E+00 .            .            .   +*       .            .
  5.500E-05  1.001E+00 .            .            .   + *      .            .
  5.600E-05  1.001E+00 .            .            .   + *      .            .
  5.700E-05  1.001E+00 .            .            .    +*      .            .
  5.800E-05  1.001E+00 .            .            .    +*      .            .
  5.900E-05  1.001E+00 .            .            .    +*      .            .
  6.000E-05  1.001E+00 .            .            .    +*      .            .
  6.100E-05  1.001E+00 .            .            .    +*      .            .
  6.200E-05  1.001E+00 .            .            .    +*      .            .
  6.300E-05  1.001E+00 .            .            .    +*      .            .
  6.400E-05  1.001E+00 .            .            .    +*      .            .
  6.500E-05  1.001E+00 .            .            .    +*      .            .
  6.600E-05  1.001E+00 .            .            .    + *     .            .
  6.700E-05  1.001E+00 .            .            .    + *     .            .
  6.800E-05  1.001E+00 .            .            .    + *     .            .
  6.900E-05  1.001E+00 .            .            .    + *     .            .
  7.000E-05  1.001E+00 .            .            .     +*     .            .
  7.100E-05  1.001E+00 .            .            .     +*     .            .
  7.200E-05  1.001E+00 .            .            .     +*     .            .
  7.300E-05  1.001E+00 .            .            .     +*     .            .
  7.400E-05  1.001E+00 .            .            .     +*     .            .
  7.500E-05  1.001E+00 .            .            .     +*     .            .
  7.600E-05  1.001E+00 .            .            .     +*     .            .
  7.700E-05  1.001E+00 .            .            .     + *    .            .
  7.800E-05  1.001E+00 .            .            .     + *    .            .
  7.900E-05  1.001E+00 .            .            .     + *    .            .
  8.000E-05  1.001E+00 .            .            .     + *    .            .
  8.100E-05  1.001E+00 .            .            .     + *    .            .
  8.200E-05  1.001E+00 .            .            .     + *    .            .
  8.300E-05  1.001E+00 .            .            .     + *    .            .
  8.400E-05  1.001E+00 .            .            .      +*    .            .
  8.500E-05  1.001E+00 .            .            .      +*    .            .
  8.600E-05  1.001E+00 .            .            .      +*    .            .
  8.700E-05  1.001E+00 .            .            .      +*    .            .
  8.800E-05  1.001E+00 .            .            .      + *   .            .
  8.900E-05  1.001E+00 .            .            .      + *   .            .
  9.000E-05  1.001E+00 .            .            .      + *   .            .
  9.100E-05  1.001E+00 .            .            .      + *   .            .
  9.200E-05  1.001E+00 .            .            .      + *   .            .
  9.300E-05  1.001E+00 .            .            .      + *   .            .
  9.400E-05  1.001E+00 .            .            .      + *   .            .
  9.500E-05  1.001E+00 .            .            .      + *   .            .
  9.600E-05  1.001E+00 .            .            .      + *   .            .
  9.700E-05  1.001E+00 .            .            .      + *   .            .
  9.800E-05  1.001E+00 .            .            .       +*   .            .
  9.900E-05  1.001E+00 .            .            .       +*   .            .
  1.000E-04  1.001E+00 .            .            .       + *  .            .
  1.010E-04  1.001E+00 .            .            .       + *  .            .
  1.020E-04  1.002E+00 .            .            .       + *  .            .
  1.030E-04  1.002E+00 .            .            .       + *  .            .
  1.040E-04  1.002E+00 .            .            .       + *  .            .
  1.050E-04  1.002E+00 .            .            .       + *  .            .
  1.060E-04  1.002E+00 .            .            .       + *  .            .
  1.070E-04  1.002E+00 .            .            .       + *  .            .
  1.080E-04  1.002E+00 .            .            .       + *  .            .
  1.090E-04  1.002E+00 .            .            .       + *  .            .
  1.100E-04  1.002E+00 .            .            .       + *  .            .
  1.110E-04  1.002E+00 .            .            .       + *  .            .
  1.120E-04  1.002E+00 .            .            .       +  * .            .
  1.130E-04  1.002E+00 .            .            .       +  * .            .
  1.140E-04  1.002E+00 .            .            .        + * .            .
  1.150E-04  1.002E+00 .            .            .        + * .            .
  1.160E-04  1.002E+00 .            .            .        + * .            .
  1.170E-04  1.002E+00 .            .            .        + * .            .
  1.180E-04  1.002E+00 .            .            .        + * .            .
  1.190E-04  1.002E+00 .            .            .        + * .            .
  1.200E-04  1.002E+00 .            .            .        + * .            .
  1.210E-04  1.002E+00 .            .            .        + * .            .
  1.220E-04  1.002E+00 .            .            .        + * .            .
  1.230E-04  1.002E+00 .            .            .        + * .            .
  1.240E-04  1.002E+00 .            .            .        + * .            .
  1.250E-04  1.002E+00 .            .            .        + * .            .
  1.260E-04  1.002E+00 .            .            .        +  *.            .
  1.270E-04  1.002E+00 .            .            .        +  *.            .
  1.280E-04  1.002E+00 .            .            .        +  *.            .
  1.290E-04  1.002E+00 .            .            .        +  *.            .
  1.300E-04  1.002E+00 .            .            .        +  *.            .
  1.310E-04  1.002E+00 .            .            .         + *.            .
  1.320E-04  1.002E+00 .            .            .         + *.            .
  1.330E-04  1.002E+00 .            .            .         + *.            .
  1.340E-04  1.002E+00 .            .            .         + *.            .
  1.350E-04  1.002E+00 .            .            .         + *.            .
  1.360E-04  1.002E+00 .            .            .         + *.            .
  1.370E-04  1.002E+00 .            .            .         + *.            .
  1.380E-04  1.002E+00 .            .            .         + *.            .
  1.390E-04  1.002E+00 .            .            .         + *.            .
  1.400E-04  1.002E+00 .            .            .         +  *            .
  1.410E-04  1.002E+00 .            .            .         +  *            .
  1.420E-04  1.002E+00 .            .            .         +  *            .
  1.430E-04  1.002E+00 .            .            .         +  *            .
  1.440E-04  1.002E+00 .            .            .         +  *            .
  1.450E-04  1.002E+00 .            .            .         +  *            .
  1.460E-04  1.002E+00 .            .            .         +  *            .
  1.470E-04  1.002E+00 .            .            .         +  *            .
  1.480E-04  1.002E+00 .            .            .         +  *            .
  1.490E-04  1.002E+00 .            .            .         +  *            .
  1.500E-04  1.002E+00 .            .            .          + *            .
  1.510E-04  1.002E+00 .            .            .          + *            .
  1.520E-04  1.002E+00 .            .            .          + *            .
  1.530E-04  1.002E+00 .            .            .          + *            .
  1.540E-04  1.002E+00 .            .            .          + *            .
  1.550E-04  1.002E+00 .            .            .          + *            .
  1.560E-04  1.002E+00 .            .            .          + *            .
  1.570E-04  1.002E+00 .            .            .          + .*           .
  1.580E-04  1.002E+00 .            .            .          + .*           .
  1.590E-04  1.002E+00 .            .            .          + .*           .
  1.600E-04  1.002E+00 .            .            .          + .*           .
  1.610E-04  1.002E+00 .            .            .          + .*           .
  1.620E-04  1.002E+00 .            .            .          + .*           .
  1.630E-04  1.002E+00 .            .            .          + .*           .
  1.640E-04  1.002E+00 .            .            .          + .*           .
  1.650E-04  1.002E+00 .            .            .          + .*           .
  1.660E-04  1.002E+00 .            .            .          + .*           .
  1.670E-04  1.002E+00 .            .            .          + .*           .
  1.680E-04  1.002E+00 .            .            .          + .*           .
  1.690E-04  1.002E+00 .            .            .          + .*           .
  1.700E-04  1.002E+00 .            .            .          + .*           .
  1.710E-04  1.002E+00 .            .            .          + .*           .
  1.720E-04  1.002E+00 .            .            .          + .*           .
  1.730E-04  1.002E+00 .            .            .           +.*           .
  1.740E-04  1.002E+00 .            .            .           +.*           .
  1.750E-04  1.002E+00 .            .            .           +.*           .
  1.760E-04  1.002E+00 .            .            .           +. *          .
  1.770E-04  1.002E+00 .            .            .           +. *          .
  1.780E-04  1.002E+00 .            .            .           +. *          .
  1.790E-04  1.002E+00 .            .            .           +. *          .
  1.800E-04  1.002E+00 .            .            .           +. *          .
  1.810E-04  1.002E+00 .            .            .           +. *          .
  1.820E-04  1.002E+00 .            .            .           +. *          .
  1.830E-04  1.002E+00 .            .            .           +. *          .
  1.840E-04  1.002E+00 .            .            .           +. *          .
  1.850E-04  1.002E+00 .            .            .           +. *          .
  1.860E-04  1.002E+00 .            .            .           +. *          .
  1.870E-04  1.002E+00 .            .            .           +. *          .
  1.880E-04  1.002E+00 .            .            .           +. *          .
  1.890E-04  1.002E+00 .            .            .           +. *          .
  1.900E-04  1.002E+00 .            .            .           +. *          .
  1.910E-04  1.002E+00 .            .            .           +. *          .
  1.920E-04  1.002E+00 .            .            .           +. *          .
  1.930E-04  1.002E+00 .            .            .           +. *          .
  1.940E-04  1.002E+00 .            .            .           +. *          .
  1.950E-04  1.002E+00 .            .            .           +. *          .
  1.960E-04  1.002E+00 .            .            .           +. *          .
  1.970E-04  1.002E+00 .            .            .           +. *          .
  1.980E-04  1.002E+00 .            .            .           +. *          .
  1.990E-04  1.002E+00 .            .            .           +. *          .
  2.000E-04  1.002E+00 .            .            .           +. *          .
  2.010E-04  1.002E+00 .            .            .           +. *          .
  2.020E-04  1.002E+00 .            .            .           +.  *         .
  2.030E-04  1.002E+00 .            .            .           +.  *         .
  2.040E-04  1.002E+00 .            .            .           +.  *         .
  2.050E-04  1.002E+00 .            .            .           +.  *         .
  2.060E-04  1.002E+00 .            .            .            +  *         .
  2.070E-04  1.002E+00 .            .            .            +  *         .
  2.080E-04  1.002E+00 .            .            .            +  *         .
  2.090E-04  1.002E+00 .            .            .            +  *         .
  2.100E-04  1.002E+00 .            .            .            +  *         .
  2.110E-04  1.002E+00 .            .            .            +  *         .
  2.120E-04  1.002E+00 .            .            .            +  *         .
  2.130E-04  1.002E+00 .            .            .            +  *         .
  2.140E-04  1.002E+00 .            .            .            +  *         .
  2.150E-04  1.002E+00 .            .            .            +  *         .
  2.160E-04  1.002E+00 .            .            .            +  *         .
  2.170E-04  1.002E+00 .            .            .            +  *         .
  2.180E-04  1.002E+00 .            .            .            +  *         .
  2.190E-04  1.002E+00 .            .            .            +  *         .
  2.200E-04  1.002E+00 .            .            .            +  *         .
  2.210E-04  1.002E+00 .            .            .            +  *         .
  2.220E-04  1.002E+00 .            .            .            +  *         .
  2.230E-04  1.002E+00 .            .            .            +  *         .
  2.240E-04  1.002E+00 .            .            .            +  *         .
  2.250E-04  1.002E+00 .            .            .            +  *         .
  2.260E-04  1.002E+00 .            .            .            +  *         .
  2.270E-04  1.002E+00 .            .            .            +  *         .
  2.280E-04  1.002E+00 .            .            .            +  *         .
  2.290E-04  1.002E+00 .            .            .            +  *         .
  2.300E-04  1.002E+00 .            .            .            +  *         .
  2.310E-04  1.002E+00 .            .            .            +  *         .
  2.320E-04  1.002E+00 .            .            .            +  *         .
  2.330E-04  1.002E+00 .            .            .            +  *         .
  2.340E-04  1.002E+00 .            .            .            +  *         .
  2.350E-04  1.002E+00 .            .            .            +  *         .
  2.360E-04  1.002E+00 .            .            .            +  *         .
  2.370E-04  1.002E+00 .            .            .            +  *         .
  2.380E-04  1.002E+00 .            .            .            +  *         .
  2.390E-04  1.003E+00 .            .            .            +  *         .
  2.400E-04  1.003E+00 .            .            .            +  *         .
  2.410E-04  1.003E+00 .            .            .            +  *         .
  2.420E-04  1.003E+00 .            .            .            +  *         .
  2.430E-04  1.003E+00 .            .            .            +  *         .
  2.440E-04  1.003E+00 .            .            .            +  *         .
  2.450E-04  1.003E+00 .            .            .            +  *         .
  2.460E-04  1.003E+00 .            .            .            +  *         .
  2.470E-04  1.003E+00 .            .            .            +  *         .
  2.480E-04  1.003E+00 .            .            .            +  *         .
  2.490E-04  1.003E+00 .            .            .            +  *         .
  2.500E-04  1.003E+00 .            .            .            +  *         .
  2.510E-04  1.003E+00 .            .            .            +  *         .
  2.520E-04  1.003E+00 .            .            .            +  *         .
  2.530E-04  1.003E+00 .            .            .            +  *         .
  2.540E-04  1.003E+00 .            .            .            +  *         .
  2.550E-04  1.003E+00 .            .            .            +  *         .
  2.560E-04  1.003E+00 .            .            .            +  *         .
  2.570E-04  1.003E+00 .            .            .            +  *         .
  2.580E-04  1.003E+00 .            .            .            +  *         .
  2.590E-04  1.003E+00 .            .            .            +  *         .
  2.600E-04  1.003E+00 .            .            .            +  *         .
  2.610E-04  1.003E+00 .            .            .            +  *         .
  2.620E-04  1.002E+00 .            .            .            +  *         .
  2.630E-04  1.002E+00 .            .            .            +  *         .
  2.640E-04  1.002E+00 .            .            .            +  *         .
  2.650E-04  1.002E+00 .            .            .            +  *         .
  2.660E-04  1.002E+00 .            .            .            +  *         .
  2.670E-04  1.002E+00 .            .            .            +  *         .
  2.680E-04  1.002E+00 .            .            .            +  *         .
  2.690E-04  1.002E+00 .            .            .            +  *         .
  2.700E-04  1.002E+00 .            .            .            +  *         .
  2.710E-04  1.002E+00 .            .            .            +  *         .
  2.720E-04  1.002E+00 .            .            .            +  *         .
  2.730E-04  1.002E+00 .            .            .            +  *         .
  2.740E-04  1.002E+00 .            .            .            +  *         .
  2.750E-04  1.002E+00 .            .            .            +  *         .
  2.760E-04  1.002E+00 .            .            .            +  *         .
  2.770E-04  1.002E+00 .            .            .            +  *         .
  2.780E-04  1.002E+00 .            .            .            +  *         .
  2.790E-04  1.002E+00 .            .            .            +  *         .
  2.800E-04  1.002E+00 .            .            .            +  *         .
  2.810E-04  1.002E+00 .            .            .            +  *         .
  2.820E-04  1.002E+00 .            .            .            +  *         .
  2.830E-04  1.002E+00 .            .            .            +  *         .
  2.840E-04  1.002E+00 .            .            .            +  *         .
  2.850E-04  1.002E+00 .            .            .            +  *         .
  2.860E-04  1.002E+00 .            .            .            +  *         .
  2.870E-04  1.002E+00 .            .            .            +  *         .
  2.880E-04  1.002E+00 .            .            .            +  *         .
  2.890E-04  1.002E+00 .            .            .            +  *         .
  2.900E-04  1.002E+00 .            .            .            +  *         .
  2.910E-04  1.002E+00 .            .            .            +  *         .
  2.920E-04  1.002E+00 .            .            .            +  *         .
  2.930E-04  1.002E+00 .            .            .            +  *         .
  2.940E-04  1.002E+00 .            .            .            +  *         .
  2.950E-04  1.002E+00 .            .            .           +.  *         .
  2.960E-04  1.002E+00 .            .            .           +.  *         .
  2.970E-04  1.002E+00 .            .            .           +.  *         .
  2.980E-04  1.002E+00 .            .            .           +.  *         .
  2.990E-04  1.002E+00 .            .            .           +. *          .
  3.000E-04  1.002E+00 .            .            .           +. *          .
  3.010E-04  1.002E+00 .            .            .           +. *          .
  3.020E-04  1.002E+00 .            .            .           +. *          .
  3.030E-04  1.002E+00 .            .            .           +. *          .
  3.040E-04  1.002E+00 .            .            .           +. *          .
  3.050E-04  1.002E+00 .            .            .           +. *          .
  3.060E-04  1.002E+00 .            .            .           +. *          .
  3.070E-04  1.002E+00 .            .            .           +. *          .
  3.080E-04  1.002E+00 .            .            .           +. *          .
  3.090E-04  1.002E+00 .            .            .           +. *          .
  3.100E-04  1.002E+00 .            .            .           +. *          .
  3.110E-04  1.002E+00 .            .            .           +. *          .
  3.120E-04  1.002E+00 .            .            .           +. *          .
  3.130E-04  1.002E+00 .            .            .           +. *          .
  3.140E-04  1.002E+00 .            .            .           +. *          .
  3.150E-04  1.002E+00 .            .            .           +. *          .
  3.160E-04  1.002E+00 .            .            .           +. *          .
  3.170E-04  1.002E+00 .            .            .           +. *          .
  3.180E-04  1.002E+00 .            .            .           +. *          .
  3.190E-04  1.002E+00 .            .            .           +. *          .
  3.200E-04  1.002E+00 .            .            .           +. *          .
  3.210E-04  1.002E+00 .            .            .           +. *          .
  3.220E-04  1.002E+00 .            .            .           +. *          .
  3.230E-04  1.002E+00 .            .            .           +. *          .
  3.240E-04  1.002E+00 .            .            .           +. *          .
  3.250E-04  1.002E+00 .            .            .           +.*           .
  3.260E-04  1.002E+00 .            .            .           +.*           .
  3.270E-04  1.002E+00 .            .            .           +.*           .
  3.280E-04  1.002E+00 .            .            .          + .*           .
  3.290E-04  1.002E+00 .            .            .          + .*           .
  3.300E-04  1.002E+00 .            .            .          + .*           .
  3.310E-04  1.002E+00 .            .            .          + .*           .
  3.320E-04  1.002E+00 .            .            .          + .*           .
  3.330E-04  1.002E+00 .            .            .          + .*           .
  3.340E-04  1.002E+00 .            .            .          + .*           .
  3.350E-04  1.002E+00 .            .            .          + .*           .
  3.360E-04  1.002E+00 .            .            .          + .*           .
  3.370E-04  1.002E+00 .            .            .          + .*           .
  3.380E-04  1.002E+00 .            .            .          + .*           .
  3.390E-04  1.002E+00 .            .            .          + .*           .
  3.400E-04  1.002E+00 .            .            .          + .*           .
  3.410E-04  1.002E+00 .            .            .          + .*           .
  3.420E-04  1.002E+00 .            .            .          + .*           .
  3.430E-04  1.002E+00 .            .            .          + .*           .
  3.440E-04  1.002E+00 .            .            .          + *            .
  3.450E-04  1.002E+00 .            .            .          + *            .
  3.460E-04  1.002E+00 .            .            .          + *            .
  3.470E-04  1.002E+00 .            .            .          + *            .
  3.480E-04  1.002E+00 .            .            .          + *            .
  3.490E-04  1.002E+00 .            .            .          + *            .
  3.500E-04  1.002E+00 .            .            .          + *            .
  3.510E-04  1.002E+00 .            .            .         +  *            .
  3.520E-04  1.002E+00 .            .            .         +  *            .
  3.530E-04  1.002E+00 .            .            .         +  *            .
  3.540E-04  1.002E+00 .            .            .         +  *            .
  3.550E-04  1.002E+00 .            .            .         +  *            .
  3.560E-04  1.002E+00 .            .            .         +  *            .
  3.570E-04  1.002E+00 .            .            .         +  *            .
  3.580E-04  1.002E+00 .            .            .         +  *            .
  3.590E-04  1.002E+00 .            .            .         +  *            .
  3.600E-04  1.002E+00 .            .            .         +  *            .
  3.610E-04  1.002E+00 .            .            .         + *.            .
  3.620E-04  1.002E+00 .            .            .         + *.            .
  3.630E-04  1.002E+00 .            .            .         + *.            .
  3.640E-04  1.002E+00 .            .            .         + *.            .
  3.650E-04  1.002E+00 .            .            .         + *.            .
  3.660E-04  1.002E+00 .            .            .         + *.            .
  3.670E-04  1.002E+00 .            .            .         + *.            .
  3.680E-04  1.002E+00 .            .            .         + *.            .
  3.690E-04  1.002E+00 .            .            .         + *.            .
  3.700E-04  1.002E+00 .            .            .        +  *.            .
  3.710E-04  1.002E+00 .            .            .        +  *.            .
  3.720E-04  1.002E+00 .            .            .        +  *.            .
  3.730E-04  1.002E+00 .            .            .        +  *.            .
  3.740E-04  1.002E+00 .            .            .        +  *.            .
  3.750E-04  1.002E+00 .            .            .        + * .            .
  3.760E-04  1.002E+00 .            .            .        + * .            .
  3.770E-04  1.002E+00 .            .            .        + * .            .
  3.780E-04  1.002E+00 .            .            .        + * .            .
  3.790E-04  1.002E+00 .            .            .        + * .            .
  3.800E-04  1.002E+00 .            .            .        + * .            .
  3.810E-04  1.002E+00 .            .            .        + * .            .
  3.820E-04  1.002E+00 .            .            .        + * .            .
  3.830E-04  1.002E+00 .            .            .        + * .            .
  3.840E-04  1.002E+00 .            .            .        + * .            .
  3.850E-04  1.002E+00 .            .            .        + * .            .
  3.860E-04  1.002E+00 .            .            .        + * .            .
  3.870E-04  1.002E+00 .            .            .       +  * .            .
  3.880E-04  1.002E+00 .            .            .       +  * .            .
  3.890E-04  1.002E+00 .            .            .       + *  .            .
  3.900E-04  1.002E+00 .            .            .       + *  .            .
  3.910E-04  1.002E+00 .            .            .       + *  .            .
  3.920E-04  1.002E+00 .            .            .       + *  .            .
  3.930E-04  1.002E+00 .            .            .       + *  .            .
  3.940E-04  1.002E+00 .            .            .       + *  .            .
  3.950E-04  1.002E+00 .            .            .       + *  .            .
  3.960E-04  1.002E+00 .            .            .       + *  .            .
  3.970E-04  1.002E+00 .            .            .       + *  .            .
  3.980E-04  1.002E+00 .            .            .       + *  .            .
  3.990E-04  1.001E+00 .            .            .       + *  .            .
  4.000E-04  1.001E+00 .            .            .       + *  .            .
  4.010E-04  1.001E+00 .            .            .       +*   .            .
  4.020E-04  1.001E+00 .            .            .       +*   .            .
  4.030E-04  1.001E+00 .            .            .      + *   .            .
  4.040E-04  1.001E+00 .            .            .      + *   .            .
  4.050E-04  1.001E+00 .            .            .      + *   .            .
  4.060E-04  1.001E+00 .            .            .      + *   .            .
  4.070E-04  1.001E+00 .            .            .      + *   .            .
  4.080E-04  1.001E+00 .            .            .      + *   .            .
  4.090E-04  1.001E+00 .            .            .      + *   .            .
  4.100E-04  1.001E+00 .            .            .      + *   .            .
  4.110E-04  1.001E+00 .            .            .      + *   .            .
  4.120E-04  1.001E+00 .            .            .      + *   .            .
  4.130E-04  1.001E+00 .            .            .      +*    .            .
  4.140E-04  1.001E+00 .            .            .      +*    .            .
  4.150E-04  1.001E+00 .            .            .      +*    .            .
  4.160E-04  1.001E+00 .            .            .      +*    .            .
  4.170E-04  1.001E+00 .            .            .     + *    .            .
  4.180E-04  1.001E+00 .            .            .     + *    .            .
  4.190E-04  1.001E+00 .            .            .     + *    .            .
  4.200E-04  1.001E+00 .            .            .     + *    .            .
  4.210E-04  1.001E+00 .            .            .     + *    .            .
  4.220E-04  1.001E+00 .            .            .     + *    .            .
  4.230E-04  1.001E+00 .            .            .     + *    .            .
  4.240E-04  1.001E+00 .            .            .     +*     .            .
  4.250E-04  1.001E+00 .            .            .     +*     .            .
  4.260E-04  1.001E+00 .            .            .     +*     .            .
  4.270E-04  1.001E+00 .            .            .     +*     .            .
  4.280E-04  1.001E+00 .            .            .     +*     .            .
  4.290E-04  1.001E+00 .            .            .     +*     .            .
  4.300E-04  1.001E+00 .            .            .     +*     .            .
  4.310E-04  1.001E+00 .            .            .    + *     .            .
  4.320E-04  1.001E+00 .            .            .    + *     .            .
  4.330E-04  1.001E+00 .            .            .    + *     .            .
  4.340E-04  1.001E+00 .            .            .    + *     .            .
  4.350E-04  1.001E+00 .            .            .    +*      .            .
  4.360E-04  1.001E+00 .            .            .    +*      .            .
  4.370E-04  1.001E+00 .            .            .    +*      .            .
  4.380E-04  1.001E+00 .            .            .    +*      .            .
  4.390E-04  1.001E+00 .            .            .    +*      .            .
  4.400E-04  1.001E+00 .            .            .    +*      .            .
  4.410E-04  1.001E+00 .            .            .    +*      .            .
  4.420E-04  1.001E+00 .            .            .    +*      .            .
  4.430E-04  1.001E+00 .            .            .    +*      .            .
  4.440E-04  1.001E+00 .            .            .   + *      .            .
  4.450E-04  1.001E+00 .            .            .   + *      .            .
  4.460E-04  1.001E+00 .            .            .   +*       .            .
  4.470E-04  1.001E+00 .            .            .   +*       .            .
  4.480E-04  1.001E+00 .            .            .   +*       .            .
  4.490E-04  1.001E+00 .            .            .   +*       .            .
  4.500E-04  1.001E+00 .            .            .   +*       .            .
  4.510E-04  1.001E+00 .            .            .   +*       .            .
  4.520E-04  1.001E+00 .            .            .   +*       .            .
  4.530E-04  1.001E+00 .            .            .   +*       .            .
  4.540E-04  1.001E+00 .            .            .   +*       .            .
  4.550E-04  1.001E+00 .            .            .   +*       .            .
  4.560E-04  1.001E+00 .            .            .   X        .            .
  4.570E-04  1.001E+00 .            .            .  +*        .            .
  4.580E-04  1.001E+00 .            .            .  +*        .            .
  4.590E-04  1.001E+00 .            .            .  +*        .            .
  4.600E-04  1.001E+00 .            .            .  +*        .            .
  4.610E-04  1.001E+00 .            .            .  +*        .            .
  4.620E-04  1.001E+00 .            .            .  +*        .            .
  4.630E-04  1.001E+00 .            .            .  +*        .            .
  4.640E-04  1.001E+00 .            .            .  +*        .            .
  4.650E-04  1.001E+00 .            .            .  +*        .            .
  4.660E-04  1.001E+00 .            .            .  X         .            .
  4.670E-04  1.001E+00 .            .            .  X         .            .
  4.680E-04  1.001E+00 .            .            .  X         .            .
  4.690E-04  1.000E+00 .            .            .  X         .            .
  4.700E-04  1.000E+00 .            .            . +*         .            .
  4.710E-04  1.000E+00 .            .            . +*         .            .
  4.720E-04  1.000E+00 .            .            . +*         .            .
  4.730E-04  1.000E+00 .            .            . +*         .            .
  4.740E-04  1.000E+00 .            .            . +*         .            .
  4.750E-04  1.000E+00 .            .            . +*         .            .
  4.760E-04  1.000E+00 .            .            . X          .            .
  4.770E-04  1.000E+00 .            .            . X          .            .
  4.780E-04  1.000E+00 .            .            . X          .            .
  4.790E-04  1.000E+00 .            .            . X          .            .
  4.800E-04  1.000E+00 .            .            . X          .            .
  4.810E-04  1.000E+00 .            .            . X          .            .
  4.820E-04  1.000E+00 .            .            .+*          .            .
  4.830E-04  1.000E+00 .            .            .+*          .            .
  4.840E-04  1.000E+00 .            .            .+*          .            .
  4.850E-04  1.000E+00 .            .            .+*          .            .
  4.860E-04  1.000E+00 .            .            .X           .            .
  4.870E-04  1.000E+00 .            .            .X           .            .
  4.880E-04  1.000E+00 .            .            .X           .            .
  4.890E-04  1.000E+00 .            .            .X           .            .
  4.900E-04  1.000E+00 .            .            .X           .            .
  4.910E-04  1.000E+00 .            .            .X           .            .
  4.920E-04  1.000E+00 .            .            .X           .            .
  4.930E-04  1.000E+00 .            .            .X           .            .
  4.940E-04  1.000E+00 .            .            +*           .            .
  4.950E-04  1.000E+00 .            .            +*           .            .
  4.960E-04  1.000E+00 .            .            X            .            .
  4.970E-04  1.000E+00 .            .            X            .            .
  4.980E-04  1.000E+00 .            .            X            .            .
  4.990E-04  1.000E+00 .            .            X            .            .
  5.000E-04  1.000E+00 .            .            X            .            .
  5.010E-04  1.000E+00 .            .            X            .            .
  5.020E-04  1.000E+00 .            .            X            .            .
  5.030E-04  1.000E+00 .            .            X            .            .
  5.040E-04  9.999E-01 .            .            X            .            .
  5.050E-04  9.999E-01 .            .           *+            .            .
  5.060E-04  9.999E-01 .            .           *+            .            .
  5.070E-04  9.999E-01 .            .           X.            .            .
  5.080E-04  9.999E-01 .            .           X.            .            .
  5.090E-04  9.999E-01 .            .           X.            .            .
  5.100E-04  9.998E-01 .            .           X.            .            .
  5.110E-04  9.998E-01 .            .           X.            .            .
  5.120E-04  9.998E-01 .            .           X.            .            .
  5.130E-04  9.998E-01 .            .           X.            .            .
  5.140E-04  9.998E-01 .            .           X.            .            .
  5.150E-04  9.998E-01 .            .          *+.            .            .
  5.160E-04  9.997E-01 .            .          *+.            .            .
  5.170E-04  9.997E-01 .            .          *+.            .            .
  5.180E-04  9.997E-01 .            .          *+.            .            .
  5.190E-04  9.997E-01 .            .          X .            .            .
  5.200E-04  9.997E-01 .            .          X .            .            .
  5.210E-04  9.997E-01 .            .          X .            .            .
  5.220E-04  9.997E-01 .            .          X .            .            .
  5.230E-04  9.996E-01 .            .          X .            .            .
  5.240E-04  9.996E-01 .            .          X .            .            .
  5.250E-04  9.996E-01 .            .         *+ .            .            .
  5.260E-04  9.996E-01 .            .         *+ .            .            .
  5.270E-04  9.996E-01 .            .         *+ .            .            .
  5.280E-04  9.996E-01 .            .         *+ .            .            .
  5.290E-04  9.995E-01 .            .         *+ .            .            .
  5.300E-04  9.995E-01 .            .         *+ .            .            .
  5.310E-04  9.995E-01 .            .         X  .            .            .
  5.320E-04  9.995E-01 .            .         X  .            .            .
  5.330E-04  9.995E-01 .            .         X  .            .            .
  5.340E-04  9.995E-01 .            .         X  .            .            .
  5.350E-04  9.995E-01 .            .        *+  .            .            .
  5.360E-04  9.994E-01 .            .        *+  .            .            .
  5.370E-04  9.994E-01 .            .        *+  .            .            .
  5.380E-04  9.994E-01 .            .        *+  .            .            .
  5.390E-04  9.994E-01 .            .        *+  .            .            .
  5.400E-04  9.994E-01 .            .        *+  .            .            .
  5.410E-04  9.994E-01 .            .        *+  .            .            .
  5.420E-04  9.993E-01 .            .        *+  .            .            .
  5.430E-04  9.993E-01 .            .        *+  .            .            .
  5.440E-04  9.993E-01 .            .        X   .            .            .
  5.450E-04  9.993E-01 .            .       *+   .            .            .
  5.460E-04  9.993E-01 .            .       *+   .            .            .
  5.470E-04  9.993E-01 .            .       *+   .            .            .
  5.480E-04  9.993E-01 .            .       *+   .            .            .
  5.490E-04  9.992E-01 .            .       *+   .            .            .
  5.500E-04  9.992E-01 .            .       *+   .            .            .
  5.510E-04  9.992E-01 .            .       *+   .            .            .
  5.520E-04  9.992E-01 .            .       *+   .            .            .
  5.530E-04  9.992E-01 .            .       *+   .            .            .
  5.540E-04  9.992E-01 .            .       *+   .            .            .
  5.550E-04  9.992E-01 .            .      * +   .            .            .
  5.560E-04  9.991E-01 .            .      * +   .            .            .
  5.570E-04  9.991E-01 .            .      *+    .            .            .
  5.580E-04  9.991E-01 .            .      *+    .            .            .
  5.590E-04  9.991E-01 .            .      *+    .            .            .
  5.600E-04  9.991E-01 .            .      *+    .            .            .
  5.610E-04  9.991E-01 .            .      *+    .            .            .
  5.620E-04  9.991E-01 .            .      *+    .            .            .
  5.630E-04  9.990E-01 .            .      *+    .            .            .
  5.640E-04  9.990E-01 .            .      *+    .            .            .
  5.650E-04  9.990E-01 .            .      *+    .            .            .
  5.660E-04  9.990E-01 .            .     * +    .            .            .
  5.670E-04  9.990E-01 .            .     * +    .            .            .
  5.680E-04  9.990E-01 .            .     * +    .            .            .
  5.690E-04  9.990E-01 .            .     * +    .            .            .
  5.700E-04  9.989E-01 .            .     *+     .            .            .
  5.710E-04  9.989E-01 .            .     *+     .            .            .
  5.720E-04  9.989E-01 .            .     *+     .            .            .
  5.730E-04  9.989E-01 .            .     *+     .            .            .
  5.740E-04  9.989E-01 .            .     *+     .            .            .
  5.750E-04  9.989E-01 .            .     *+     .            .            .
  5.760E-04  9.989E-01 .            .     *+     .            .            .
  5.770E-04  9.988E-01 .            .    * +     .            .            .
  5.780E-04  9.988E-01 .            .    * +     .            .            .
  5.790E-04  9.988E-01 .            .    * +     .            .            .
  5.800E-04  9.988E-01 .            .    * +     .            .            .
  5.810E-04  9.988E-01 .            .    * +     .            .            .
  5.820E-04  9.988E-01 .            .    * +     .            .            .
  5.830E-04  9.988E-01 .            .    * +     .            .            .
  5.840E-04  9.987E-01 .            .    *+      .            .            .
  5.850E-04  9.987E-01 .            .    *+      .            .            .
  5.860E-04  9.987E-01 .            .    *+      .            .            .
  5.870E-04  9.987E-01 .            .    *+      .            .            .
  5.880E-04  9.987E-01 .            .   * +      .            .            .
  5.890E-04  9.987E-01 .            .   * +      .            .            .
  5.900E-04  9.987E-01 .            .   * +      .            .            .
  5.910E-04  9.986E-01 .            .   * +      .            .            .
  5.920E-04  9.986E-01 .            .   * +      .            .            .
  5.930E-04  9.986E-01 .            .   * +      .            .            .
  5.940E-04  9.986E-01 .            .   * +      .            .            .
  5.950E-04  9.986E-01 .            .   * +      .            .            .
  5.960E-04  9.986E-01 .            .   * +      .            .            .
  5.970E-04  9.986E-01 .            .   * +      .            .            .
  5.980E-04  9.986E-01 .            .   *+       .            .            .
  5.990E-04  9.985E-01 .            .   *+       .            .            .
  6.000E-04  9.985E-01 .            .  * +       .            .            .
  6.010E-04  9.985E-01 .            .  * +       .            .            .
  6.020E-04  9.985E-01 .            .  * +       .            .            .
  6.030E-04  9.985E-01 .            .  * +       .            .            .
  6.040E-04  9.985E-01 .            .  * +       .            .            .
  6.050E-04  9.985E-01 .            .  * +       .            .            .
  6.060E-04  9.985E-01 .            .  * +       .            .            .
  6.070E-04  9.984E-01 .            .  * +       .            .            .
  6.080E-04  9.984E-01 .            .  * +       .            .            .
  6.090E-04  9.984E-01 .            .  * +       .            .            .
  6.100E-04  9.984E-01 .            .  * +       .            .            .
  6.110E-04  9.984E-01 .            .  * +       .            .            .
  6.120E-04  9.984E-01 .            . *  +       .            .            .
  6.130E-04  9.984E-01 .            . *  +       .            .            .
  6.140E-04  9.984E-01 .            . * +        .            .            .
  6.150E-04  9.983E-01 .            . * +        .            .            .
  6.160E-04  9.983E-01 .            . * +        .            .            .
  6.170E-04  9.983E-01 .            . * +        .            .            .
  6.180E-04  9.983E-01 .            . * +        .            .            .
  6.190E-04  9.983E-01 .            . * +        .            .            .
  6.200E-04  9.983E-01 .            . * +        .            .            .
  6.210E-04  9.983E-01 .            . * +        .            .            .
  6.220E-04  9.983E-01 .            . * +        .            .            .
  6.230E-04  9.983E-01 .            . * +        .            .            .
  6.240E-04  9.982E-01 .            . * +        .            .            .
  6.250E-04  9.982E-01 .            . * +        .            .            .
  6.260E-04  9.982E-01 .            .*  +        .            .            .
  6.270E-04  9.982E-01 .            .*  +        .            .            .
  6.280E-04  9.982E-01 .            .*  +        .            .            .
  6.290E-04  9.982E-01 .            .*  +        .            .            .
  6.300E-04  9.982E-01 .            .*  +        .            .            .
  6.310E-04  9.982E-01 .            .* +         .            .            .
  6.320E-04  9.982E-01 .            .* +         .            .            .
  6.330E-04  9.981E-01 .            .* +         .            .            .
  6.340E-04  9.981E-01 .            .* +         .            .            .
  6.350E-04  9.981E-01 .            .* +         .            .            .
  6.360E-04  9.981E-01 .            .* +         .            .            .
  6.370E-04  9.981E-01 .            .* +         .            .            .
  6.380E-04  9.981E-01 .            .* +         .            .            .
  6.390E-04  9.981E-01 .            .* +         .            .            .
  6.400E-04  9.981E-01 .            *  +         .            .            .
  6.410E-04  9.981E-01 .            *  +         .            .            .
  6.420E-04  9.981E-01 .            *  +         .            .            .
  6.430E-04  9.980E-01 .            *  +         .            .            .
  6.440E-04  9.980E-01 .            *  +         .            .            .
  6.450E-04  9.980E-01 .            *  +         .            .            .
  6.460E-04  9.980E-01 .            *  +         .            .            .
  6.470E-04  9.980E-01 .            *  +         .            .            .
  6.480E-04  9.980E-01 .            *  +         .            .            .
  6.490E-04  9.980E-01 .            *  +         .            .            .
  6.500E-04  9.980E-01 .            * +          .            .            .
  6.510E-04  9.980E-01 .            * +          .            .            .
  6.520E-04  9.980E-01 .            * +          .            .            .
  6.530E-04  9.980E-01 .            * +          .            .            .
  6.540E-04  9.979E-01 .            * +          .            .            .
  6.550E-04  9.979E-01 .            * +          .            .            .
  6.560E-04  9.979E-01 .            * +          .            .            .
  6.570E-04  9.979E-01 .           *. +          .            .            .
  6.580E-04  9.979E-01 .           *. +          .            .            .
  6.590E-04  9.979E-01 .           *. +          .            .            .
  6.600E-04  9.979E-01 .           *. +          .            .            .
  6.610E-04  9.979E-01 .           *. +          .            .            .
  6.620E-04  9.979E-01 .           *. +          .            .            .
  6.630E-04  9.979E-01 .           *. +          .            .            .
  6.640E-04  9.979E-01 .           *. +          .            .            .
  6.650E-04  9.978E-01 .           *. +          .            .            .
  6.660E-04  9.978E-01 .           *. +          .            .            .
  6.670E-04  9.978E-01 .           *. +          .            .            .
  6.680E-04  9.978E-01 .           *. +          .            .            .
  6.690E-04  9.978E-01 .           *. +          .            .            .
  6.700E-04  9.978E-01 .           *. +          .            .            .
  6.710E-04  9.978E-01 .           *. +          .            .            .
  6.720E-04  9.978E-01 .           *. +          .            .            .
  6.730E-04  9.978E-01 .           *.+           .            .            .
  6.740E-04  9.978E-01 .           *.+           .            .            .
  6.750E-04  9.978E-01 .           *.+           .            .            .
  6.760E-04  9.978E-01 .          * .+           .            .            .
  6.770E-04  9.978E-01 .          * .+           .            .            .
  6.780E-04  9.978E-01 .          * .+           .            .            .
  6.790E-04  9.977E-01 .          * .+           .            .            .
  6.800E-04  9.977E-01 .          * .+           .            .            .
  6.810E-04  9.977E-01 .          * .+           .            .            .
  6.820E-04  9.977E-01 .          * .+           .            .            .
  6.830E-04  9.977E-01 .          * .+           .            .            .
  6.840E-04  9.977E-01 .          * .+           .            .            .
  6.850E-04  9.977E-01 .          * .+           .            .            .
  6.860E-04  9.977E-01 .          * .+           .            .            .
  6.870E-04  9.977E-01 .          * .+           .            .            .
  6.880E-04  9.977E-01 .          * .+           .            .            .
  6.890E-04  9.977E-01 .          * .+           .            .            .
  6.900E-04  9.977E-01 .          * .+           .            .            .
  6.910E-04  9.977E-01 .          * .+           .            .            .
  6.920E-04  9.977E-01 .          * .+           .            .            .
  6.930E-04  9.977E-01 .          * .+           .            .            .
  6.940E-04  9.977E-01 .          * .+           .            .            .
  6.950E-04  9.976E-01 .          * .+           .            .            .
  6.960E-04  9.976E-01 .          * .+           .            .            .
  6.970E-04  9.976E-01 .          * .+           .            .            .
  6.980E-04  9.976E-01 .          * .+           .            .            .
  6.990E-04  9.976E-01 .          * .+           .            .            .
  7.000E-04  9.976E-01 .          * .+           .            .            .
  7.010E-04  9.976E-01 .          * .+           .            .            .
  7.020E-04  9.976E-01 .         *  .+           .            .            .
  7.030E-04  9.976E-01 .         *  .+           .            .            .
  7.040E-04  9.976E-01 .         *  .+           .            .            .
  7.050E-04  9.976E-01 .         *  .+           .            .            .
  7.060E-04  9.976E-01 .         *  +            .            .            .
  7.070E-04  9.976E-01 .         *  +            .            .            .
  7.080E-04  9.976E-01 .         *  +            .            .            .
  7.090E-04  9.976E-01 .         *  +            .            .            .
  7.100E-04  9.976E-01 .         *  +            .            .            .
  7.110E-04  9.976E-01 .         *  +            .            .            .
  7.120E-04  9.976E-01 .         *  +            .            .            .
  7.130E-04  9.976E-01 .         *  +            .            .            .
  7.140E-04  9.976E-01 .         *  +            .            .            .
  7.150E-04  9.976E-01 .         *  +            .            .            .
  7.160E-04  9.976E-01 .         *  +            .            .            .
  7.170E-04  9.976E-01 .         *  +            .            .            .
  7.180E-04  9.976E-01 .         *  +            .            .            .
  7.190E-04  9.975E-01 .         *  +            .            .            .
  7.200E-04  9.975E-01 .         *  +            .            .            .
  7.210E-04  9.975E-01 .         *  +            .            .            .
  7.220E-04  9.975E-01 .         *  +            .            .            .
  7.230E-04  9.975E-01 .         *  +            .            .            .
  7.240E-04  9.975E-01 .         *  +            .            .            .
  7.250E-04  9.975E-01 .         *  +            .            .            .
  7.260E-04  9.975E-01 .         *  +            .            .            .
  7.270E-04  9.975E-01 .         *  +            .            .            .
  7.280E-04  9.975E-01 .         *  +            .            .            .
  7.290E-04  9.975E-01 .         *  +            .            .            .
  7.300E-04  9.975E-01 .         *  +            .            .            .
  7.310E-04  9.975E-01 .         *  +            .            .            .
  7.320E-04  9.975E-01 .         *  +            .            .            .
  7.330E-04  9.975E-01 .         *  +            .            .            .
  7.340E-04  9.975E-01 .         *  +            .            .            .
  7.350E-04  9.975E-01 .         *  +            .            .            .
  7.360E-04  9.975E-01 .         *  +            .            .            .
  7.370E-04  9.975E-01 .         *  +            .            .            .
  7.380E-04  9.975E-01 .         *  +            .            .            .
  7.390E-04  9.975E-01 .         *  +            .            .            .
  7.400E-04  9.975E-01 .         *  +            .            .            .
  7.410E-04  9.975E-01 .         *  +            .            .            .
  7.420E-04  9.975E-01 .         *  +            .            .            .
  7.430E-04  9.975E-01 .         *  +            .            .            .
  7.440E-04  9.975E-01 .         *  +            .            .            .
  7.450E-04  9.975E-01 .         *  +            .            .            .
  7.460E-04  9.975E-01 .         *  +            .            .            .
  7.470E-04  9.975E-01 .         *  +            .            .            .
  7.480E-04  9.975E-01 .         *  +            .            .            .
  7.490E-04  9.975E-01 .         *  +            .            .            .
  7.500E-04  9.975E-01 .         *  +            .            .            .
  7.510E-04  9.975E-01 .         *  +            .            .            .
  7.520E-04  9.975E-01 .         *  +            .            .            .
  7.530E-04  9.975E-01 .         *  +            .            .            .
  7.540E-04  9.975E-01 .         *  +            .            .            .
  7.550E-04  9.975E-01 .         *  +            .            .            .
  7.560E-04  9.975E-01 .         *  +            .            .            .
  7.570E-04  9.975E-01 .         *  +            .            .            .
  7.580E-04  9.975E-01 .         *  +            .            .            .
  7.590E-04  9.975E-01 .         *  +            .            .            .
  7.600E-04  9.975E-01 .         *  +            .            .            .
  7.610E-04  9.975E-01 .         *  +            .            .            .
  7.620E-04  9.975E-01 .         *  +            .            .            .
  7.630E-04  9.975E-01 .         *  +            .            .            .
  7.640E-04  9.975E-01 .         *  +            .            .            .
  7.650E-04  9.975E-01 .         *  +            .            .            .
  7.660E-04  9.975E-01 .         *  +            .            .            .
  7.670E-04  9.975E-01 .         *  +            .            .            .
  7.680E-04  9.975E-01 .         *  +            .            .            .
  7.690E-04  9.975E-01 .         *  +            .            .            .
  7.700E-04  9.975E-01 .         *  +            .            .            .
  7.710E-04  9.975E-01 .         *  +            .            .            .
  7.720E-04  9.975E-01 .         *  +            .            .            .
  7.730E-04  9.975E-01 .         *  +            .            .            .
  7.740E-04  9.975E-01 .         *  +            .            .            .
  7.750E-04  9.975E-01 .         *  +            .            .            .
  7.760E-04  9.975E-01 .         *  +            .            .            .
  7.770E-04  9.975E-01 .         *  +            .            .            .
  7.780E-04  9.975E-01 .         *  +            .            .            .
  7.790E-04  9.975E-01 .         *  +            .            .            .
  7.800E-04  9.975E-01 .         *  +            .            .            .
  7.810E-04  9.975E-01 .         *  +            .            .            .
  7.820E-04  9.976E-01 .         *  +            .            .            .
  7.830E-04  9.976E-01 .         *  +            .            .            .
  7.840E-04  9.976E-01 .         *  +            .            .            .
  7.850E-04  9.976E-01 .         *  +            .            .            .
  7.860E-04  9.976E-01 .         *  +            .            .            .
  7.870E-04  9.976E-01 .         *  +            .            .            .
  7.880E-04  9.976E-01 .         *  +            .            .            .
  7.890E-04  9.976E-01 .         *  +            .            .            .
  7.900E-04  9.976E-01 .         *  +            .            .            .
  7.910E-04  9.976E-01 .         *  +            .            .            .
  7.920E-04  9.976E-01 .         *  +            .            .            .
  7.930E-04  9.976E-01 .         *  +            .            .            .
  7.940E-04  9.976E-01 .         *  +            .            .            .
  7.950E-04  9.976E-01 .         *  .+           .            .            .
  7.960E-04  9.976E-01 .         *  .+           .            .            .
  7.970E-04  9.976E-01 .         *  .+           .            .            .
  7.980E-04  9.976E-01 .         *  .+           .            .            .
  7.990E-04  9.976E-01 .          * .+           .            .            .
  8.000E-04  9.976E-01 .          * .+           .            .            .
  8.010E-04  9.976E-01 .          * .+           .            .            .
  8.020E-04  9.976E-01 .          * .+           .            .            .
  8.030E-04  9.976E-01 .          * .+           .            .            .
  8.040E-04  9.976E-01 .          * .+           .            .            .
  8.050E-04  9.976E-01 .          * .+           .            .            .
  8.060E-04  9.977E-01 .          * .+           .            .            .
  8.070E-04  9.977E-01 .          * .+           .            .            .
  8.080E-04  9.977E-01 .          * .+           .            .            .
  8.090E-04  9.977E-01 .          * .+           .            .            .
  8.100E-04  9.977E-01 .          * .+           .            .            .
  8.110E-04  9.977E-01 .          * .+           .            .            .
  8.120E-04  9.977E-01 .          * .+           .            .            .
  8.130E-04  9.977E-01 .          * .+           .            .            .
  8.140E-04  9.977E-01 .          * .+           .            .            .
  8.150E-04  9.977E-01 .          * .+           .            .            .
  8.160E-04  9.977E-01 .          * .+           .            .            .
  8.170E-04  9.977E-01 .          * .+           .            .            .
  8.180E-04  9.977E-01 .          * .+           .            .            .
  8.190E-04  9.977E-01 .          * .+           .            .            .
  8.200E-04  9.977E-01 .          * .+           .            .            .
  8.210E-04  9.977E-01 .          * .+           .            .            .
  8.220E-04  9.978E-01 .          * .+           .            .            .
  8.230E-04  9.978E-01 .          * .+           .            .            .
  8.240E-04  9.978E-01 .          * .+           .            .            .
  8.250E-04  9.978E-01 .           *.+           .            .            .
  8.260E-04  9.978E-01 .           *.+           .            .            .
  8.270E-04  9.978E-01 .           *.+           .            .            .
  8.280E-04  9.978E-01 .           *. +          .            .            .
  8.290E-04  9.978E-01 .           *. +          .            .            .
  8.300E-04  9.978E-01 .           *. +          .            .            .
  8.310E-04  9.978E-01 .           *. +          .            .            .
  8.320E-04  9.978E-01 .           *. +          .            .            .
  8.330E-04  9.978E-01 .           *. +          .            .            .
  8.340E-04  9.978E-01 .           *. +          .            .            .
  8.350E-04  9.978E-01 .           *. +          .            .            .
  8.360E-04  9.979E-01 .           *. +          .            .            .
  8.370E-04  9.979E-01 .           *. +          .            .            .
  8.380E-04  9.979E-01 .           *. +          .            .            .
  8.390E-04  9.979E-01 .           *. +          .            .            .
  8.400E-04  9.979E-01 .           *. +          .            .            .
  8.410E-04  9.979E-01 .           *. +          .            .            .
  8.420E-04  9.979E-01 .           *. +          .            .            .
  8.430E-04  9.979E-01 .           *. +          .            .            .
  8.440E-04  9.979E-01 .            * +          .            .            .
  8.450E-04  9.979E-01 .            * +          .            .            .
  8.460E-04  9.979E-01 .            * +          .            .            .
  8.470E-04  9.980E-01 .            * +          .            .            .
  8.480E-04  9.980E-01 .            * +          .            .            .
  8.490E-04  9.980E-01 .            * +          .            .            .
  8.500E-04  9.980E-01 .            * +          .            .            .
  8.510E-04  9.980E-01 .            *  +         .            .            .
  8.520E-04  9.980E-01 .            *  +         .            .            .
  8.530E-04  9.980E-01 .            *  +         .            .            .
  8.540E-04  9.980E-01 .            *  +         .            .            .
  8.550E-04  9.980E-01 .            *  +         .            .            .
  8.560E-04  9.980E-01 .            *  +         .            .            .
  8.570E-04  9.980E-01 .            *  +         .            .            .
  8.580E-04  9.981E-01 .            *  +         .            .            .
  8.590E-04  9.981E-01 .            *  +         .            .            .
  8.600E-04  9.981E-01 .            *  +         .            .            .
  8.610E-04  9.981E-01 .            .* +         .            .            .
  8.620E-04  9.981E-01 .            .* +         .            .            .
  8.630E-04  9.981E-01 .            .* +         .            .            .
  8.640E-04  9.981E-01 .            .* +         .            .            .
  8.650E-04  9.981E-01 .            .* +         .            .            .
  8.660E-04  9.981E-01 .            .* +         .            .            .
  8.670E-04  9.981E-01 .            .* +         .            .            .
  8.680E-04  9.982E-01 .            .* +         .            .            .
  8.690E-04  9.982E-01 .            .* +         .            .            .
  8.700E-04  9.982E-01 .            .*  +        .            .            .
  8.710E-04  9.982E-01 .            .*  +        .            .            .
  8.720E-04  9.982E-01 .            .*  +        .            .            .
  8.730E-04  9.982E-01 .            .*  +        .            .            .
  8.740E-04  9.982E-01 .            .*  +        .            .            .
  8.750E-04  9.982E-01 .            . * +        .            .            .
  8.760E-04  9.982E-01 .            . * +        .            .            .
  8.770E-04  9.983E-01 .            . * +        .            .            .
  8.780E-04  9.983E-01 .            . * +        .            .            .
  8.790E-04  9.983E-01 .            . * +        .            .            .
  8.800E-04  9.983E-01 .            . * +        .            .            .
  8.810E-04  9.983E-01 .            . * +        .            .            .
  8.820E-04  9.983E-01 .            . * +        .            .            .
  8.830E-04  9.983E-01 .            . * +        .            .            .
  8.840E-04  9.983E-01 .            . * +        .            .            .
  8.850E-04  9.983E-01 .            . * +        .            .            .
  8.860E-04  9.984E-01 .            . * +        .            .            .
  8.870E-04  9.984E-01 .            . *  +       .            .            .
  8.880E-04  9.984E-01 .            . *  +       .            .            .
  8.890E-04  9.984E-01 .            .  * +       .            .            .
  8.900E-04  9.984E-01 .            .  * +       .            .            .
  8.910E-04  9.984E-01 .            .  * +       .            .            .
  8.920E-04  9.984E-01 .            .  * +       .            .            .
  8.930E-04  9.984E-01 .            .  * +       .            .            .
  8.940E-04  9.985E-01 .            .  * +       .            .            .
  8.950E-04  9.985E-01 .            .  * +       .            .            .
  8.960E-04  9.985E-01 .            .  * +       .            .            .
  8.970E-04  9.985E-01 .            .  * +       .            .            .
  8.980E-04  9.985E-01 .            .  * +       .            .            .
  8.990E-04  9.985E-01 .            .  * +       .            .            .
  9.000E-04  9.985E-01 .            .  * +       .            .            .
  9.010E-04  9.985E-01 .            .   *+       .            .            .
  9.020E-04  9.986E-01 .            .   *+       .            .            .
  9.030E-04  9.986E-01 .            .   * +      .            .            .
  9.040E-04  9.986E-01 .            .   * +      .            .            .
  9.050E-04  9.986E-01 .            .   * +      .            .            .
  9.060E-04  9.986E-01 .            .   * +      .            .            .
  9.070E-04  9.986E-01 .            .   * +      .            .            .
  9.080E-04  9.986E-01 .            .   * +      .            .            .
  9.090E-04  9.986E-01 .            .   * +      .            .            .
  9.100E-04  9.987E-01 .            .   * +      .            .            .
  9.110E-04  9.987E-01 .            .   * +      .            .            .
  9.120E-04  9.987E-01 .            .   * +      .            .            .
  9.130E-04  9.987E-01 .            .    *+      .            .            .
  9.140E-04  9.987E-01 .            .    *+      .            .            .
  9.150E-04  9.987E-01 .            .    *+      .            .            .
  9.160E-04  9.987E-01 .            .    *+      .            .            .
  9.170E-04  9.988E-01 .            .    * +     .            .            .
  9.180E-04  9.988E-01 .            .    * +     .            .            .
  9.190E-04  9.988E-01 .            .    * +     .            .            .
  9.200E-04  9.988E-01 .            .    * +     .            .            .
  9.210E-04  9.988E-01 .            .    * +     .            .            .
  9.220E-04  9.988E-01 .            .    * +     .            .            .
  9.230E-04  9.988E-01 .            .    * +     .            .            .
  9.240E-04  9.989E-01 .            .     *+     .            .            .
  9.250E-04  9.989E-01 .            .     *+     .            .            .
  9.260E-04  9.989E-01 .            .     *+     .            .            .
  9.270E-04  9.989E-01 .            .     *+     .            .            .
  9.280E-04  9.989E-01 .            .     *+     .            .            .
  9.290E-04  9.989E-01 .            .     *+     .            .            .
  9.300E-04  9.989E-01 .            .     *+     .            .            .
  9.310E-04  9.990E-01 .            .     * +    .            .            .
  9.320E-04  9.990E-01 .            .     * +    .            .            .
  9.330E-04  9.990E-01 .            .     * +    .            .            .
  9.340E-04  9.990E-01 .            .     * +    .            .            .
  9.350E-04  9.990E-01 .            .      *+    .            .            .
  9.360E-04  9.990E-01 .            .      *+    .            .            .
  9.370E-04  9.990E-01 .            .      *+    .            .            .
  9.380E-04  9.991E-01 .            .      *+    .            .            .
  9.390E-04  9.991E-01 .            .      *+    .            .            .
  9.400E-04  9.991E-01 .            .      *+    .            .            .
  9.410E-04  9.991E-01 .            .      *+    .            .            .
  9.420E-04  9.991E-01 .            .      *+    .            .            .
  9.430E-04  9.991E-01 .            .      *+    .            .            .
  9.440E-04  9.991E-01 .            .      * +   .            .            .
  9.450E-04  9.992E-01 .            .      * +   .            .            .
  9.460E-04  9.992E-01 .            .       *+   .            .            .
  9.470E-04  9.992E-01 .            .       *+   .            .            .
  9.480E-04  9.992E-01 .            .       *+   .            .            .
  9.490E-04  9.992E-01 .            .       *+   .            .            .
  9.500E-04  9.992E-01 .            .       *+   .            .            .
  9.510E-04  9.992E-01 .            .       *+   .            .            .
  9.520E-04  9.993E-01 .            .       *+   .            .            .
  9.530E-04  9.993E-01 .            .       *+   .            .            .
  9.540E-04  9.993E-01 .            .       *+   .            .            .
  9.550E-04  9.993E-01 .            .       *+   .            .            .
  9.560E-04  9.993E-01 .            .        X   .            .            .
  9.570E-04  9.993E-01 .            .        *+  .            .            .
  9.580E-04  9.993E-01 .            .        *+  .            .            .
  9.590E-04  9.994E-01 .            .        *+  .            .            .
  9.600E-04  9.994E-01 .            .        *+  .            .            .
  9.610E-04  9.994E-01 .            .        *+  .            .            .
  9.620E-04  9.994E-01 .            .        *+  .            .            .
  9.630E-04  9.994E-01 .            .        *+  .            .            .
  9.640E-04  9.994E-01 .            .        *+  .            .            .
  9.650E-04  9.995E-01 .            .        *+  .            .            .
  9.660E-04  9.995E-01 .            .         X  .            .            .
  9.670E-04  9.995E-01 .            .         X  .            .            .
  9.680E-04  9.995E-01 .            .         X  .            .            .
  9.690E-04  9.995E-01 .            .         X  .            .            .
  9.700E-04  9.995E-01 .            .         *+ .            .            .
  9.710E-04  9.995E-01 .            .         *+ .            .            .
  9.720E-04  9.996E-01 .            .         *+ .            .            .
  9.730E-04  9.996E-01 .            .         *+ .            .            .
  9.740E-04  9.996E-01 .            .         *+ .            .            .
  9.750E-04  9.996E-01 .            .         *+ .            .            .
  9.760E-04  9.996E-01 .            .          X .            .            .
  9.770E-04  9.996E-01 .            .          X .            .            .
  9.780E-04  9.997E-01 .            .          X .            .            .
  9.790E-04  9.997E-01 .            .          X .            .            .
  9.800E-04  9.997E-01 .            .          X .            .            .
  9.810E-04  9.997E-01 .            .          X .            .            .
  9.820E-04  9.997E-01 .            .          *+.            .            .
  9.830E-04  9.997E-01 .            .          *+.            .            .
  9.840E-04  9.997E-01 .            .          *+.            .            .
  9.850E-04  9.998E-01 .            .          *+.            .            .
  9.860E-04  9.998E-01 .            .           X.            .            .
  9.870E-04  9.998E-01 .            .           X.            .            .
  9.880E-04  9.998E-01 .            .           X.            .            .
  9.890E-04  9.998E-01 .            .           X.            .            .
  9.900E-04  9.998E-01 .            .           X.            .            .
  9.910E-04  9.999E-01 .            .           X.            .            .
  9.920E-04  9.999E-01 .            .           X.            .            .
  9.930E-04  9.999E-01 .            .           X.            .            .
  9.940E-04  9.999E-01 .            .           *+            .            .
  9.950E-04  9.999E-01 .            .           *+            .            .
  9.960E-04  9.999E-01 .            .            X            .            .
  9.970E-04  1.000E+00 .            .            X            .            .
  9.980E-04  1.000E+00 .            .            X            .            .
  9.990E-04  1.000E+00 .            .            X            .            .
  1.000E-03  1.000E+00 .            .            X            .            .
                       - - - - - - - - - - - - - - - - - - - - - - - - - - - 




          JOB CONCLUDED

**** 11/16/15 21:15:38 ****** PSpice Lite (October 2012) ****** ID# 10813 ****

 Operational Amplifier Model


 ****     JOB STATISTICS SUMMARY


******************************************************************************



  Total job time (using Solver 1)   =         .03
