
**** 11/12/15 22:43:21 ****** PSpice Lite (October 2012) ****** ID# 10813 ****

 Operational Amplifier Model


 ****     CIRCUIT DESCRIPTION


******************************************************************************



**      CIRCUIT DESCRIPTION**
*POWER SUPPLY*
Vin-diff 6 0 SIN(0 5m 1k 0 0)
Vcm 5 0 1
EV1 1 5 6 0 
------------$
ERROR(ORPSIM-16396): Missing gain/transconductance/transresistance
EV2 5 2 6 0 



*ELEMENTS*
------------$
ERROR(ORPSIM-16396): Missing gain/transconductance/transresistance
X1 1 2 3 OPAMP
RL 3 0 1K
R1 6 0 1K


**ANALYSIS REQUESTS**
.TRAN 1u 1 0 1u

**OUTPUT REQUEST**
.PLOT TRAN V(1,0) V(6,0)
.PROBE



*             non-inverting input
*             | inverting input
*             | | output
*             | | |
.SUBCKT OPAMP 1 2 3


*CIRCUIT DESCRIPTION

*SOURCE
EV3 4 0 1 2 10K
Rin 1 2 1MEG
Rout 4 3 50


.ENDS OPAMP

.END
