
**** 11/13/15 00:23:45 ****** PSpice Lite (October 2012) ****** ID# 10813 ****

 Inverting Amplifier


 ****     CIRCUIT DESCRIPTION


******************************************************************************



**CIRCUIT DESCRIPTION**
*POWER SUPPLY*
Vin 5 0 PULSE(-5m 5m 0 10u 10u 0.49m 1m)

*ELEMENTS*
R1 5 2 10K
R2 0 1 10K
R3 2 3 100K
RL 3 0 1K
X1 1 2 3 OPAMP

**ANALYSIS REQUUEST**
.TRAN 1u 5m 0 1u

**OUTPUT REQUEST**
.PLOT TRAN V(1,0), V(5,0)
.PROBE


*             non-inverting input
*             | inverting input
*             | | output
*             | | |
.SUBCKT OPAMP 1 2 3


*CIRCUIT DESCRIPTION

*SOURCE
EV3 4 0 1 2 10K
Rin 1 2 1MEG
Rout 4 3 50


.ENDS OPAMP


.END

**** 11/13/15 00:23:45 ****** PSpice Lite (October 2012) ****** ID# 10813 ****

 Inverting Amplifier


 ****     INITIAL TRANSIENT SOLUTION       TEMPERATURE =   27.000 DEG C


******************************************************************************



 NODE   VOLTAGE     NODE   VOLTAGE     NODE   VOLTAGE     NODE   VOLTAGE


(    1)-52.46E-09  (    2)-5.299E-06  (    3)     .0499  (    5)    -.0050      

( X1.4)     .0525  




    VOLTAGE SOURCE CURRENTS
    NAME         CURRENT

    Vin          4.995E-07

    TOTAL POWER DISSIPATION   2.50E-09  WATTS


**** 11/13/15 00:23:45 ****** PSpice Lite (October 2012) ****** ID# 10813 ****

 Inverting Amplifier


 ****     TRANSIENT ANALYSIS               TEMPERATURE =   27.000 DEG C


******************************************************************************



 LEGEND:

*: V(1,0)
+: V(5,0)

  TIME        V(1,0)      
(*)----------   -1.0000E-07  -5.0000E-08   0.0000E+00   5.0000E-08   1.0000E-07
(+)----------   -1.0000E-02  -5.0000E-03   0.0000E+00   5.0000E-03   1.0000E-02
                       _ _ _ _ _ _ _ _ _ _ _ _ _ _ _ _ _ _ _ _ _ _ _ _ _ _ _
  0.000E+00 -5.246E-08 .           *+            .            .            .
  1.000E-06 -4.197E-08 .            . *+         .            .            .
  2.000E-06 -3.148E-08 .            .    X       .            .            .
  3.000E-06 -2.099E-08 .            .       X    .            .            .
  4.000E-06 -1.049E-08 .            .         X  .            .            .
  5.000E-06  6.266E-16 .            .            X            .            .
  6.000E-06  1.049E-08 .            .            .  X         .            .
  7.000E-06  2.099E-08 .            .            .    X       .            .
  8.000E-06  3.148E-08 .            .            .       X    .            .
  9.000E-06  4.197E-08 .            .            .         +* .            .
  1.000E-05  5.246E-08 .            .            .            +*           .
  1.100E-05  5.246E-08 .            .            .            +*           .
  1.200E-05  5.246E-08 .            .            .            +*           .
  1.300E-05  5.246E-08 .            .            .            +*           .
  1.400E-05  5.246E-08 .            .            .            +*           .
  1.500E-05  5.246E-08 .            .            .            +*           .
  1.600E-05  5.246E-08 .            .            .            +*           .
  1.700E-05  5.246E-08 .            .            .            +*           .
  1.800E-05  5.246E-08 .            .            .            +*           .
  1.900E-05  5.246E-08 .            .            .            +*           .
  2.000E-05  5.246E-08 .            .            .            +*           .
  2.100E-05  5.246E-08 .            .            .            +*           .
  2.200E-05  5.246E-08 .            .            .            +*           .
  2.300E-05  5.246E-08 .            .            .            +*           .
  2.400E-05  5.246E-08 .            .            .            +*           .
  2.500E-05  5.246E-08 .            .            .            +*           .
  2.600E-05  5.246E-08 .            .            .            +*           .
  2.700E-05  5.246E-08 .            .            .            +*           .
  2.800E-05  5.246E-08 .            .            .            +*           .
  2.900E-05  5.246E-08 .            .            .            +*           .
  3.000E-05  5.246E-08 .            .            .            +*           .
  3.100E-05  5.246E-08 .            .            .            +*           .
  3.200E-05  5.246E-08 .            .            .            +*           .
  3.300E-05  5.246E-08 .            .            .            +*           .
  3.400E-05  5.246E-08 .            .            .            +*           .
  3.500E-05  5.246E-08 .            .            .            +*           .
  3.600E-05  5.246E-08 .            .            .            +*           .
  3.700E-05  5.246E-08 .            .            .            +*           .
  3.800E-05  5.246E-08 .            .            .            +*           .
  3.900E-05  5.246E-08 .            .            .            +*           .
  4.000E-05  5.246E-08 .            .            .            +*           .
  4.100E-05  5.246E-08 .            .            .            +*           .
  4.200E-05  5.246E-08 .            .            .            +*           .
  4.300E-05  5.246E-08 .            .            .            +*           .
  4.400E-05  5.246E-08 .            .            .            +*           .
  4.500E-05  5.246E-08 .            .            .            +*           .
  4.600E-05  5.246E-08 .            .            .            +*           .
  4.700E-05  5.246E-08 .            .            .            +*           .
  4.800E-05  5.246E-08 .            .            .            +*           .
  4.900E-05  5.246E-08 .            .            .            +*           .
  5.000E-05  5.246E-08 .            .            .            +*           .
  5.100E-05  5.246E-08 .            .            .            +*           .
  5.200E-05  5.246E-08 .            .            .            +*           .
  5.300E-05  5.246E-08 .            .            .            +*           .
  5.400E-05  5.246E-08 .            .            .            +*           .
  5.500E-05  5.246E-08 .            .            .            +*           .
  5.600E-05  5.246E-08 .            .            .            +*           .
  5.700E-05  5.246E-08 .            .            .            +*           .
  5.800E-05  5.246E-08 .            .            .            +*           .
  5.900E-05  5.246E-08 .            .            .            +*           .
  6.000E-05  5.246E-08 .            .            .            +*           .
  6.100E-05  5.246E-08 .            .            .            +*           .
  6.200E-05  5.246E-08 .            .            .            +*           .
  6.300E-05  5.246E-08 .            .            .            +*           .
  6.400E-05  5.246E-08 .            .            .            +*           .
  6.500E-05  5.246E-08 .            .            .            +*           .
  6.600E-05  5.246E-08 .            .            .            +*           .
  6.700E-05  5.246E-08 .            .            .            +*           .
  6.800E-05  5.246E-08 .            .            .            +*           .
  6.900E-05  5.246E-08 .            .            .            +*           .
  7.000E-05  5.246E-08 .            .            .            +*           .
  7.100E-05  5.246E-08 .            .            .            +*           .
  7.200E-05  5.246E-08 .            .            .            +*           .
  7.300E-05  5.246E-08 .            .            .            +*           .
  7.400E-05  5.246E-08 .            .            .            +*           .
  7.500E-05  5.246E-08 .            .            .            +*           .
  7.600E-05  5.246E-08 .            .            .            +*           .
  7.700E-05  5.246E-08 .            .            .            +*           .
  7.800E-05  5.246E-08 .            .            .            +*           .
  7.900E-05  5.246E-08 .            .            .            +*           .
  8.000E-05  5.246E-08 .            .            .            +*           .
  8.100E-05  5.246E-08 .            .            .            +*           .
  8.200E-05  5.246E-08 .            .            .            +*           .
  8.300E-05  5.246E-08 .            .            .            +*           .
  8.400E-05  5.246E-08 .            .            .            +*           .
  8.500E-05  5.246E-08 .            .            .            +*           .
  8.600E-05  5.246E-08 .            .            .            +*           .
  8.700E-05  5.246E-08 .            .            .            +*           .
  8.800E-05  5.246E-08 .            .            .            +*           .
  8.900E-05  5.246E-08 .            .            .            +*           .
  9.000E-05  5.246E-08 .            .            .            +*           .
  9.100E-05  5.246E-08 .            .            .            +*           .
  9.200E-05  5.246E-08 .            .            .            +*           .
  9.300E-05  5.246E-08 .            .            .            +*           .
  9.400E-05  5.246E-08 .            .            .            +*           .
  9.500E-05  5.246E-08 .            .            .            +*           .
  9.600E-05  5.246E-08 .            .            .            +*           .
  9.700E-05  5.246E-08 .            .            .            +*           .
  9.800E-05  5.246E-08 .            .            .            +*           .
  9.900E-05  5.246E-08 .            .            .            +*           .
  1.000E-04  5.246E-08 .            .            .            +*           .
  1.010E-04  5.246E-08 .            .            .            +*           .
  1.020E-04  5.246E-08 .            .            .            +*           .
  1.030E-04  5.246E-08 .            .            .            +*           .
  1.040E-04  5.246E-08 .            .            .            +*           .
  1.050E-04  5.246E-08 .            .            .            +*           .
  1.060E-04  5.246E-08 .            .            .            +*           .
  1.070E-04  5.246E-08 .            .            .            +*           .
  1.080E-04  5.246E-08 .            .            .            +*           .
  1.090E-04  5.246E-08 .            .            .            +*           .
  1.100E-04  5.246E-08 .            .            .            +*           .
  1.110E-04  5.246E-08 .            .            .            +*           .
  1.120E-04  5.246E-08 .            .            .            +*           .
  1.130E-04  5.246E-08 .            .            .            +*           .
  1.140E-04  5.246E-08 .            .            .            +*           .
  1.150E-04  5.246E-08 .            .            .            +*           .
  1.160E-04  5.246E-08 .            .            .            +*           .
  1.170E-04  5.246E-08 .            .            .            +*           .
  1.180E-04  5.246E-08 .            .            .            +*           .
  1.190E-04  5.246E-08 .            .            .            +*           .
  1.200E-04  5.246E-08 .            .            .            +*           .
  1.210E-04  5.246E-08 .            .            .            +*           .
  1.220E-04  5.246E-08 .            .            .            +*           .
  1.230E-04  5.246E-08 .            .            .            +*           .
  1.240E-04  5.246E-08 .            .            .            +*           .
  1.250E-04  5.246E-08 .            .            .            +*           .
  1.260E-04  5.246E-08 .            .            .            +*           .
  1.270E-04  5.246E-08 .            .            .            +*           .
  1.280E-04  5.246E-08 .            .            .            +*           .
  1.290E-04  5.246E-08 .            .            .            +*           .
  1.300E-04  5.246E-08 .            .            .            +*           .
  1.310E-04  5.246E-08 .            .            .            +*           .
  1.320E-04  5.246E-08 .            .            .            +*           .
  1.330E-04  5.246E-08 .            .            .            +*           .
  1.340E-04  5.246E-08 .            .            .            +*           .
  1.350E-04  5.246E-08 .            .            .            +*           .
  1.360E-04  5.246E-08 .            .            .            +*           .
  1.370E-04  5.246E-08 .            .            .            +*           .
  1.380E-04  5.246E-08 .            .            .            +*           .
  1.390E-04  5.246E-08 .            .            .            +*           .
  1.400E-04  5.246E-08 .            .            .            +*           .
  1.410E-04  5.246E-08 .            .            .            +*           .
  1.420E-04  5.246E-08 .            .            .            +*           .
  1.430E-04  5.246E-08 .            .            .            +*           .
  1.440E-04  5.246E-08 .            .            .            +*           .
  1.450E-04  5.246E-08 .            .            .            +*           .
  1.460E-04  5.246E-08 .            .            .            +*           .
  1.470E-04  5.246E-08 .            .            .            +*           .
  1.480E-04  5.246E-08 .            .            .            +*           .
  1.490E-04  5.246E-08 .            .            .            +*           .
  1.500E-04  5.246E-08 .            .            .            +*           .
  1.510E-04  5.246E-08 .            .            .            +*           .
  1.520E-04  5.246E-08 .            .            .            +*           .
  1.530E-04  5.246E-08 .            .            .            +*           .
  1.540E-04  5.246E-08 .            .            .            +*           .
  1.550E-04  5.246E-08 .            .            .            +*           .
  1.560E-04  5.246E-08 .            .            .            +*           .
  1.570E-04  5.246E-08 .            .            .            +*           .
  1.580E-04  5.246E-08 .            .            .            +*           .
  1.590E-04  5.246E-08 .            .            .            +*           .
  1.600E-04  5.246E-08 .            .            .            +*           .
  1.610E-04  5.246E-08 .            .            .            +*           .
  1.620E-04  5.246E-08 .            .            .            +*           .
  1.630E-04  5.246E-08 .            .            .            +*           .
  1.640E-04  5.246E-08 .            .            .            +*           .
  1.650E-04  5.246E-08 .            .            .            +*           .
  1.660E-04  5.246E-08 .            .            .            +*           .
  1.670E-04  5.246E-08 .            .            .            +*           .
  1.680E-04  5.246E-08 .            .            .            +*           .
  1.690E-04  5.246E-08 .            .            .            +*           .
  1.700E-04  5.246E-08 .            .            .            +*           .
  1.710E-04  5.246E-08 .            .            .            +*           .
  1.720E-04  5.246E-08 .            .            .            +*           .
  1.730E-04  5.246E-08 .            .            .            +*           .
  1.740E-04  5.246E-08 .            .            .            +*           .
  1.750E-04  5.246E-08 .            .            .            +*           .
  1.760E-04  5.246E-08 .            .            .            +*           .
  1.770E-04  5.246E-08 .            .            .            +*           .
  1.780E-04  5.246E-08 .            .            .            +*           .
  1.790E-04  5.246E-08 .            .            .            +*           .
  1.800E-04  5.246E-08 .            .            .            +*           .
  1.810E-04  5.246E-08 .            .            .            +*           .
  1.820E-04  5.246E-08 .            .            .            +*           .
  1.830E-04  5.246E-08 .            .            .            +*           .
  1.840E-04  5.246E-08 .            .            .            +*           .
  1.850E-04  5.246E-08 .            .            .            +*           .
  1.860E-04  5.246E-08 .            .            .            +*           .
  1.870E-04  5.246E-08 .            .            .            +*           .
  1.880E-04  5.246E-08 .            .            .            +*           .
  1.890E-04  5.246E-08 .            .            .            +*           .
  1.900E-04  5.246E-08 .            .            .            +*           .
  1.910E-04  5.246E-08 .            .            .            +*           .
  1.920E-04  5.246E-08 .            .            .            +*           .
  1.930E-04  5.246E-08 .            .            .            +*           .
  1.940E-04  5.246E-08 .            .            .            +*           .
  1.950E-04  5.246E-08 .            .            .            +*           .
  1.960E-04  5.246E-08 .            .            .            +*           .
  1.970E-04  5.246E-08 .            .            .            +*           .
  1.980E-04  5.246E-08 .            .            .            +*           .
  1.990E-04  5.246E-08 .            .            .            +*           .
  2.000E-04  5.246E-08 .            .            .            +*           .
  2.010E-04  5.246E-08 .            .            .            +*           .
  2.020E-04  5.246E-08 .            .            .            +*           .
  2.030E-04  5.246E-08 .            .            .            +*           .
  2.040E-04  5.246E-08 .            .            .            +*           .
  2.050E-04  5.246E-08 .            .            .            +*           .
  2.060E-04  5.246E-08 .            .            .            +*           .
  2.070E-04  5.246E-08 .            .            .            +*           .
  2.080E-04  5.246E-08 .            .            .            +*           .
  2.090E-04  5.246E-08 .            .            .            +*           .
  2.100E-04  5.246E-08 .            .            .            +*           .
  2.110E-04  5.246E-08 .            .            .            +*           .
  2.120E-04  5.246E-08 .            .            .            +*           .
  2.130E-04  5.246E-08 .            .            .            +*           .
  2.140E-04  5.246E-08 .            .            .            +*           .
  2.150E-04  5.246E-08 .            .            .            +*           .
  2.160E-04  5.246E-08 .            .            .            +*           .
  2.170E-04  5.246E-08 .            .            .            +*           .
  2.180E-04  5.246E-08 .            .            .            +*           .
  2.190E-04  5.246E-08 .            .            .            +*           .
  2.200E-04  5.246E-08 .            .            .            +*           .
  2.210E-04  5.246E-08 .            .            .            +*           .
  2.220E-04  5.246E-08 .            .            .            +*           .
  2.230E-04  5.246E-08 .            .            .            +*           .
  2.240E-04  5.246E-08 .            .            .            +*           .
  2.250E-04  5.246E-08 .            .            .            +*           .
  2.260E-04  5.246E-08 .            .            .            +*           .
  2.270E-04  5.246E-08 .            .            .            +*           .
  2.280E-04  5.246E-08 .            .            .            +*           .
  2.290E-04  5.246E-08 .            .            .            +*           .
  2.300E-04  5.246E-08 .            .            .            +*           .
  2.310E-04  5.246E-08 .            .            .            +*           .
  2.320E-04  5.246E-08 .            .            .            +*           .
  2.330E-04  5.246E-08 .            .            .            +*           .
  2.340E-04  5.246E-08 .            .            .            +*           .
  2.350E-04  5.246E-08 .            .            .            +*           .
  2.360E-04  5.246E-08 .            .            .            +*           .
  2.370E-04  5.246E-08 .            .            .            +*           .
  2.380E-04  5.246E-08 .            .            .            +*           .
  2.390E-04  5.246E-08 .            .            .            +*           .
  2.400E-04  5.246E-08 .            .            .            +*           .
  2.410E-04  5.246E-08 .            .            .            +*           .
  2.420E-04  5.246E-08 .            .            .            +*           .
  2.430E-04  5.246E-08 .            .            .            +*           .
  2.440E-04  5.246E-08 .            .            .            +*           .
  2.450E-04  5.246E-08 .            .            .            +*           .
  2.460E-04  5.246E-08 .            .            .            +*           .
  2.470E-04  5.246E-08 .            .            .            +*           .
  2.480E-04  5.246E-08 .            .            .            +*           .
  2.490E-04  5.246E-08 .            .            .            +*           .
  2.500E-04  5.246E-08 .            .            .            +*           .
  2.510E-04  5.246E-08 .            .            .            +*           .
  2.520E-04  5.246E-08 .            .            .            +*           .
  2.530E-04  5.246E-08 .            .            .            +*           .
  2.540E-04  5.246E-08 .            .            .            +*           .
  2.550E-04  5.246E-08 .            .            .            +*           .
  2.560E-04  5.246E-08 .            .            .            +*           .
  2.570E-04  5.246E-08 .            .            .            +*           .
  2.580E-04  5.246E-08 .            .            .            +*           .
  2.590E-04  5.246E-08 .            .            .            +*           .
  2.600E-04  5.246E-08 .            .            .            +*           .
  2.610E-04  5.246E-08 .            .            .            +*           .
  2.620E-04  5.246E-08 .            .            .            +*           .
  2.630E-04  5.246E-08 .            .            .            +*           .
  2.640E-04  5.246E-08 .            .            .            +*           .
  2.650E-04  5.246E-08 .            .            .            +*           .
  2.660E-04  5.246E-08 .            .            .            +*           .
  2.670E-04  5.246E-08 .            .            .            +*           .
  2.680E-04  5.246E-08 .            .            .            +*           .
  2.690E-04  5.246E-08 .            .            .            +*           .
  2.700E-04  5.246E-08 .            .            .            +*           .
  2.710E-04  5.246E-08 .            .            .            +*           .
  2.720E-04  5.246E-08 .            .            .            +*           .
  2.730E-04  5.246E-08 .            .            .            +*           .
  2.740E-04  5.246E-08 .            .            .            +*           .
  2.750E-04  5.246E-08 .            .            .            +*           .
  2.760E-04  5.246E-08 .            .            .            +*           .
  2.770E-04  5.246E-08 .            .            .            +*           .
  2.780E-04  5.246E-08 .            .            .            +*           .
  2.790E-04  5.246E-08 .            .            .            +*           .
  2.800E-04  5.246E-08 .            .            .            +*           .
  2.810E-04  5.246E-08 .            .            .            +*           .
  2.820E-04  5.246E-08 .            .            .            +*           .
  2.830E-04  5.246E-08 .            .            .            +*           .
  2.840E-04  5.246E-08 .            .            .            +*           .
  2.850E-04  5.246E-08 .            .            .            +*           .
  2.860E-04  5.246E-08 .            .            .            +*           .
  2.870E-04  5.246E-08 .            .            .            +*           .
  2.880E-04  5.246E-08 .            .            .            +*           .
  2.890E-04  5.246E-08 .            .            .            +*           .
  2.900E-04  5.246E-08 .            .            .            +*           .
  2.910E-04  5.246E-08 .            .            .            +*           .
  2.920E-04  5.246E-08 .            .            .            +*           .
  2.930E-04  5.246E-08 .            .            .            +*           .
  2.940E-04  5.246E-08 .            .            .            +*           .
  2.950E-04  5.246E-08 .            .            .            +*           .
  2.960E-04  5.246E-08 .            .            .            +*           .
  2.970E-04  5.246E-08 .            .            .            +*           .
  2.980E-04  5.246E-08 .            .            .            +*           .
  2.990E-04  5.246E-08 .            .            .            +*           .
  3.000E-04  5.246E-08 .            .            .            +*           .
  3.010E-04  5.246E-08 .            .            .            +*           .
  3.020E-04  5.246E-08 .            .            .            +*           .
  3.030E-04  5.246E-08 .            .            .            +*           .
  3.040E-04  5.246E-08 .            .            .            +*           .
  3.050E-04  5.246E-08 .            .            .            +*           .
  3.060E-04  5.246E-08 .            .            .            +*           .
  3.070E-04  5.246E-08 .            .            .            +*           .
  3.080E-04  5.246E-08 .            .            .            +*           .
  3.090E-04  5.246E-08 .            .            .            +*           .
  3.100E-04  5.246E-08 .            .            .            +*           .
  3.110E-04  5.246E-08 .            .            .            +*           .
  3.120E-04  5.246E-08 .            .            .            +*           .
  3.130E-04  5.246E-08 .            .            .            +*           .
  3.140E-04  5.246E-08 .            .            .            +*           .
  3.150E-04  5.246E-08 .            .            .            +*           .
  3.160E-04  5.246E-08 .            .            .            +*           .
  3.170E-04  5.246E-08 .            .            .            +*           .
  3.180E-04  5.246E-08 .            .            .            +*           .
  3.190E-04  5.246E-08 .            .            .            +*           .
  3.200E-04  5.246E-08 .            .            .            +*           .
  3.210E-04  5.246E-08 .            .            .            +*           .
  3.220E-04  5.246E-08 .            .            .            +*           .
  3.230E-04  5.246E-08 .            .            .            +*           .
  3.240E-04  5.246E-08 .            .            .            +*           .
  3.250E-04  5.246E-08 .            .            .            +*           .
  3.260E-04  5.246E-08 .            .            .            +*           .
  3.270E-04  5.246E-08 .            .            .            +*           .
  3.280E-04  5.246E-08 .            .            .            +*           .
  3.290E-04  5.246E-08 .            .            .            +*           .
  3.300E-04  5.246E-08 .            .            .            +*           .
  3.310E-04  5.246E-08 .            .            .            +*           .
  3.320E-04  5.246E-08 .            .            .            +*           .
  3.330E-04  5.246E-08 .            .            .            +*           .
  3.340E-04  5.246E-08 .            .            .            +*           .
  3.350E-04  5.246E-08 .            .            .            +*           .
  3.360E-04  5.246E-08 .            .            .            +*           .
  3.370E-04  5.246E-08 .            .            .            +*           .
  3.380E-04  5.246E-08 .            .            .            +*           .
  3.390E-04  5.246E-08 .            .            .            +*           .
  3.400E-04  5.246E-08 .            .            .            +*           .
  3.410E-04  5.246E-08 .            .            .            +*           .
  3.420E-04  5.246E-08 .            .            .            +*           .
  3.430E-04  5.246E-08 .            .            .            +*           .
  3.440E-04  5.246E-08 .            .            .            +*           .
  3.450E-04  5.246E-08 .            .            .            +*           .
  3.460E-04  5.246E-08 .            .            .            +*           .
  3.470E-04  5.246E-08 .            .            .            +*           .
  3.480E-04  5.246E-08 .            .            .            +*           .
  3.490E-04  5.246E-08 .            .            .            +*           .
  3.500E-04  5.246E-08 .            .            .            +*           .
  3.510E-04  5.246E-08 .            .            .            +*           .
  3.520E-04  5.246E-08 .            .            .            +*           .
  3.530E-04  5.246E-08 .            .            .            +*           .
  3.540E-04  5.246E-08 .            .            .            +*           .
  3.550E-04  5.246E-08 .            .            .            +*           .
  3.560E-04  5.246E-08 .            .            .            +*           .
  3.570E-04  5.246E-08 .            .            .            +*           .
  3.580E-04  5.246E-08 .            .            .            +*           .
  3.590E-04  5.246E-08 .            .            .            +*           .
  3.600E-04  5.246E-08 .            .            .            +*           .
  3.610E-04  5.246E-08 .            .            .            +*           .
  3.620E-04  5.246E-08 .            .            .            +*           .
  3.630E-04  5.246E-08 .            .            .            +*           .
  3.640E-04  5.246E-08 .            .            .            +*           .
  3.650E-04  5.246E-08 .            .            .            +*           .
  3.660E-04  5.246E-08 .            .            .            +*           .
  3.670E-04  5.246E-08 .            .            .            +*           .
  3.680E-04  5.246E-08 .            .            .            +*           .
  3.690E-04  5.246E-08 .            .            .            +*           .
  3.700E-04  5.246E-08 .            .            .            +*           .
  3.710E-04  5.246E-08 .            .            .            +*           .
  3.720E-04  5.246E-08 .            .            .            +*           .
  3.730E-04  5.246E-08 .            .            .            +*           .
  3.740E-04  5.246E-08 .            .            .            +*           .
  3.750E-04  5.246E-08 .            .            .            +*           .
  3.760E-04  5.246E-08 .            .            .            +*           .
  3.770E-04  5.246E-08 .            .            .            +*           .
  3.780E-04  5.246E-08 .            .            .            +*           .
  3.790E-04  5.246E-08 .            .            .            +*           .
  3.800E-04  5.246E-08 .            .            .            +*           .
  3.810E-04  5.246E-08 .            .            .            +*           .
  3.820E-04  5.246E-08 .            .            .            +*           .
  3.830E-04  5.246E-08 .            .            .            +*           .
  3.840E-04  5.246E-08 .            .            .            +*           .
  3.850E-04  5.246E-08 .            .            .            +*           .
  3.860E-04  5.246E-08 .            .            .            +*           .
  3.870E-04  5.246E-08 .            .            .            +*           .
  3.880E-04  5.246E-08 .            .            .            +*           .
  3.890E-04  5.246E-08 .            .            .            +*           .
  3.900E-04  5.246E-08 .            .            .            +*           .
  3.910E-04  5.246E-08 .            .            .            +*           .
  3.920E-04  5.246E-08 .            .            .            +*           .
  3.930E-04  5.246E-08 .            .            .            +*           .
  3.940E-04  5.246E-08 .            .            .            +*           .
  3.950E-04  5.246E-08 .            .            .            +*           .
  3.960E-04  5.246E-08 .            .            .            +*           .
  3.970E-04  5.246E-08 .            .            .            +*           .
  3.980E-04  5.246E-08 .            .            .            +*           .
  3.990E-04  5.246E-08 .            .            .            +*           .
  4.000E-04  5.246E-08 .            .            .            +*           .
  4.010E-04  5.246E-08 .            .            .            +*           .
  4.020E-04  5.246E-08 .            .            .            +*           .
  4.030E-04  5.246E-08 .            .            .            +*           .
  4.040E-04  5.246E-08 .            .            .            +*           .
  4.050E-04  5.246E-08 .            .            .            +*           .
  4.060E-04  5.246E-08 .            .            .            +*           .
  4.070E-04  5.246E-08 .            .            .            +*           .
  4.080E-04  5.246E-08 .            .            .            +*           .
  4.090E-04  5.246E-08 .            .            .            +*           .
  4.100E-04  5.246E-08 .            .            .            +*           .
  4.110E-04  5.246E-08 .            .            .            +*           .
  4.120E-04  5.246E-08 .            .            .            +*           .
  4.130E-04  5.246E-08 .            .            .            +*           .
  4.140E-04  5.246E-08 .            .            .            +*           .
  4.150E-04  5.246E-08 .            .            .            +*           .
  4.160E-04  5.246E-08 .            .            .            +*           .
  4.170E-04  5.246E-08 .            .            .            +*           .
  4.180E-04  5.246E-08 .            .            .            +*           .
  4.190E-04  5.246E-08 .            .            .            +*           .
  4.200E-04  5.246E-08 .            .            .            +*           .
  4.210E-04  5.246E-08 .            .            .            +*           .
  4.220E-04  5.246E-08 .            .            .            +*           .
  4.230E-04  5.246E-08 .            .            .            +*           .
  4.240E-04  5.246E-08 .            .            .            +*           .
  4.250E-04  5.246E-08 .            .            .            +*           .
  4.260E-04  5.246E-08 .            .            .            +*           .
  4.270E-04  5.246E-08 .            .            .            +*           .
  4.280E-04  5.246E-08 .            .            .            +*           .
  4.290E-04  5.246E-08 .            .            .            +*           .
  4.300E-04  5.246E-08 .            .            .            +*           .
  4.310E-04  5.246E-08 .            .            .            +*           .
  4.320E-04  5.246E-08 .            .            .            +*           .
  4.330E-04  5.246E-08 .            .            .            +*           .
  4.340E-04  5.246E-08 .            .            .            +*           .
  4.350E-04  5.246E-08 .            .            .            +*           .
  4.360E-04  5.246E-08 .            .            .            +*           .
  4.370E-04  5.246E-08 .            .            .            +*           .
  4.380E-04  5.246E-08 .            .            .            +*           .
  4.390E-04  5.246E-08 .            .            .            +*           .
  4.400E-04  5.246E-08 .            .            .            +*           .
  4.410E-04  5.246E-08 .            .            .            +*           .
  4.420E-04  5.246E-08 .            .            .            +*           .
  4.430E-04  5.246E-08 .            .            .            +*           .
  4.440E-04  5.246E-08 .            .            .            +*           .
  4.450E-04  5.246E-08 .            .            .            +*           .
  4.460E-04  5.246E-08 .            .            .            +*           .
  4.470E-04  5.246E-08 .            .            .            +*           .
  4.480E-04  5.246E-08 .            .            .            +*           .
  4.490E-04  5.246E-08 .            .            .            +*           .
  4.500E-04  5.246E-08 .            .            .            +*           .
  4.510E-04  5.246E-08 .            .            .            +*           .
  4.520E-04  5.246E-08 .            .            .            +*           .
  4.530E-04  5.246E-08 .            .            .            +*           .
  4.540E-04  5.246E-08 .            .            .            +*           .
  4.550E-04  5.246E-08 .            .            .            +*           .
  4.560E-04  5.246E-08 .            .            .            +*           .
  4.570E-04  5.246E-08 .            .            .            +*           .
  4.580E-04  5.246E-08 .            .            .            +*           .
  4.590E-04  5.246E-08 .            .            .            +*           .
  4.600E-04  5.246E-08 .            .            .            +*           .
  4.610E-04  5.246E-08 .            .            .            +*           .
  4.620E-04  5.246E-08 .            .            .            +*           .
  4.630E-04  5.246E-08 .            .            .            +*           .
  4.640E-04  5.246E-08 .            .            .            +*           .
  4.650E-04  5.246E-08 .            .            .            +*           .
  4.660E-04  5.246E-08 .            .            .            +*           .
  4.670E-04  5.246E-08 .            .            .            +*           .
  4.680E-04  5.246E-08 .            .            .            +*           .
  4.690E-04  5.246E-08 .            .            .            +*           .
  4.700E-04  5.246E-08 .            .            .            +*           .
  4.710E-04  5.246E-08 .            .            .            +*           .
  4.720E-04  5.246E-08 .            .            .            +*           .
  4.730E-04  5.246E-08 .            .            .            +*           .
  4.740E-04  5.246E-08 .            .            .            +*           .
  4.750E-04  5.246E-08 .            .            .            +*           .
  4.760E-04  5.246E-08 .            .            .            +*           .
  4.770E-04  5.246E-08 .            .            .            +*           .
  4.780E-04  5.246E-08 .            .            .            +*           .
  4.790E-04  5.246E-08 .            .            .            +*           .
  4.800E-04  5.246E-08 .            .            .            +*           .
  4.810E-04  5.246E-08 .            .            .            +*           .
  4.820E-04  5.246E-08 .            .            .            +*           .
  4.830E-04  5.246E-08 .            .            .            +*           .
  4.840E-04  5.246E-08 .            .            .            +*           .
  4.850E-04  5.246E-08 .            .            .            +*           .
  4.860E-04  5.246E-08 .            .            .            +*           .
  4.870E-04  5.246E-08 .            .            .            +*           .
  4.880E-04  5.246E-08 .            .            .            +*           .
  4.890E-04  5.246E-08 .            .            .            +*           .
  4.900E-04  5.246E-08 .            .            .            +*           .
  4.910E-04  5.246E-08 .            .            .            +*           .
  4.920E-04  5.246E-08 .            .            .            +*           .
  4.930E-04  5.246E-08 .            .            .            +*           .
  4.940E-04  5.246E-08 .            .            .            +*           .
  4.950E-04  5.246E-08 .            .            .            +*           .
  4.960E-04  5.246E-08 .            .            .            +*           .
  4.970E-04  5.246E-08 .            .            .            +*           .
  4.980E-04  5.246E-08 .            .            .            +*           .
  4.990E-04  5.246E-08 .            .            .            +*           .
  5.000E-04  5.246E-08 .            .            .            +*           .
  5.010E-04  4.197E-08 .            .            .         +* .            .
  5.020E-04  3.148E-08 .            .            .       X    .            .
  5.030E-04  2.099E-08 .            .            .    X       .            .
  5.040E-04  1.049E-08 .            .            .  X         .            .
  5.050E-04  1.375E-14 .            .            X            .            .
  5.060E-04 -1.049E-08 .            .         X  .            .            .
  5.070E-04 -2.099E-08 .            .       X    .            .            .
  5.080E-04 -3.148E-08 .            .    X       .            .            .
  5.090E-04 -4.197E-08 .            . *+         .            .            .
  5.100E-04 -5.246E-08 .           *+            .            .            .
  5.110E-04 -5.246E-08 .           *+            .            .            .
  5.120E-04 -5.246E-08 .           *+            .            .            .
  5.130E-04 -5.246E-08 .           *+            .            .            .
  5.140E-04 -5.246E-08 .           *+            .            .            .
  5.150E-04 -5.246E-08 .           *+            .            .            .
  5.160E-04 -5.246E-08 .           *+            .            .            .
  5.170E-04 -5.246E-08 .           *+            .            .            .
  5.180E-04 -5.246E-08 .           *+            .            .            .
  5.190E-04 -5.246E-08 .           *+            .            .            .
  5.200E-04 -5.246E-08 .           *+            .            .            .
  5.210E-04 -5.246E-08 .           *+            .            .            .
  5.220E-04 -5.246E-08 .           *+            .            .            .
  5.230E-04 -5.246E-08 .           *+            .            .            .
  5.240E-04 -5.246E-08 .           *+            .            .            .
  5.250E-04 -5.246E-08 .           *+            .            .            .
  5.260E-04 -5.246E-08 .           *+            .            .            .
  5.270E-04 -5.246E-08 .           *+            .            .            .
  5.280E-04 -5.246E-08 .           *+            .            .            .
  5.290E-04 -5.246E-08 .           *+            .            .            .
  5.300E-04 -5.246E-08 .           *+            .            .            .
  5.310E-04 -5.246E-08 .           *+            .            .            .
  5.320E-04 -5.246E-08 .           *+            .            .            .
  5.330E-04 -5.246E-08 .           *+            .            .            .
  5.340E-04 -5.246E-08 .           *+            .            .            .
  5.350E-04 -5.246E-08 .           *+            .            .            .
  5.360E-04 -5.246E-08 .           *+            .            .            .
  5.370E-04 -5.246E-08 .           *+            .            .            .
  5.380E-04 -5.246E-08 .           *+            .            .            .
  5.390E-04 -5.246E-08 .           *+            .            .            .
  5.400E-04 -5.246E-08 .           *+            .            .            .
  5.410E-04 -5.246E-08 .           *+            .            .            .
  5.420E-04 -5.246E-08 .           *+            .            .            .
  5.430E-04 -5.246E-08 .           *+            .            .            .
  5.440E-04 -5.246E-08 .           *+            .            .            .
  5.450E-04 -5.246E-08 .           *+            .            .            .
  5.460E-04 -5.246E-08 .           *+            .            .            .
  5.470E-04 -5.246E-08 .           *+            .            .            .
  5.480E-04 -5.246E-08 .           *+            .            .            .
  5.490E-04 -5.246E-08 .           *+            .            .            .
  5.500E-04 -5.246E-08 .           *+            .            .            .
  5.510E-04 -5.246E-08 .           *+            .            .            .
  5.520E-04 -5.246E-08 .           *+            .            .            .
  5.530E-04 -5.246E-08 .           *+            .            .            .
  5.540E-04 -5.246E-08 .           *+            .            .            .
  5.550E-04 -5.246E-08 .           *+            .            .            .
  5.560E-04 -5.246E-08 .           *+            .            .            .
  5.570E-04 -5.246E-08 .           *+            .            .            .
  5.580E-04 -5.246E-08 .           *+            .            .            .
  5.590E-04 -5.246E-08 .           *+            .            .            .
  5.600E-04 -5.246E-08 .           *+            .            .            .
  5.610E-04 -5.246E-08 .           *+            .            .            .
  5.620E-04 -5.246E-08 .           *+            .            .            .
  5.630E-04 -5.246E-08 .           *+            .            .            .
  5.640E-04 -5.246E-08 .           *+            .            .            .
  5.650E-04 -5.246E-08 .           *+            .            .            .
  5.660E-04 -5.246E-08 .           *+            .            .            .
  5.670E-04 -5.246E-08 .           *+            .            .            .
  5.680E-04 -5.246E-08 .           *+            .            .            .
  5.690E-04 -5.246E-08 .           *+            .            .            .
  5.700E-04 -5.246E-08 .           *+            .            .            .
  5.710E-04 -5.246E-08 .           *+            .            .            .
  5.720E-04 -5.246E-08 .           *+            .            .            .
  5.730E-04 -5.246E-08 .           *+            .            .            .
  5.740E-04 -5.246E-08 .           *+            .            .            .
  5.750E-04 -5.246E-08 .           *+            .            .            .
  5.760E-04 -5.246E-08 .           *+            .            .            .
  5.770E-04 -5.246E-08 .           *+            .            .            .
  5.780E-04 -5.246E-08 .           *+            .            .            .
  5.790E-04 -5.246E-08 .           *+            .            .            .
  5.800E-04 -5.246E-08 .           *+            .            .            .
  5.810E-04 -5.246E-08 .           *+            .            .            .
  5.820E-04 -5.246E-08 .           *+            .            .            .
  5.830E-04 -5.246E-08 .           *+            .            .            .
  5.840E-04 -5.246E-08 .           *+            .            .            .
  5.850E-04 -5.246E-08 .           *+            .            .            .
  5.860E-04 -5.246E-08 .           *+            .            .            .
  5.870E-04 -5.246E-08 .           *+            .            .            .
  5.880E-04 -5.246E-08 .           *+            .            .            .
  5.890E-04 -5.246E-08 .           *+            .            .            .
  5.900E-04 -5.246E-08 .           *+            .            .            .
  5.910E-04 -5.246E-08 .           *+            .            .            .
  5.920E-04 -5.246E-08 .           *+            .            .            .
  5.930E-04 -5.246E-08 .           *+            .            .            .
  5.940E-04 -5.246E-08 .           *+            .            .            .
  5.950E-04 -5.246E-08 .           *+            .            .            .
  5.960E-04 -5.246E-08 .           *+            .            .            .
  5.970E-04 -5.246E-08 .           *+            .            .            .
  5.980E-04 -5.246E-08 .           *+            .            .            .
  5.990E-04 -5.246E-08 .           *+            .            .            .
  6.000E-04 -5.246E-08 .           *+            .            .            .
  6.010E-04 -5.246E-08 .           *+            .            .            .
  6.020E-04 -5.246E-08 .           *+            .            .            .
  6.030E-04 -5.246E-08 .           *+            .            .            .
  6.040E-04 -5.246E-08 .           *+            .            .            .
  6.050E-04 -5.246E-08 .           *+            .            .            .
  6.060E-04 -5.246E-08 .           *+            .            .            .
  6.070E-04 -5.246E-08 .           *+            .            .            .
  6.080E-04 -5.246E-08 .           *+            .            .            .
  6.090E-04 -5.246E-08 .           *+            .            .            .
  6.100E-04 -5.246E-08 .           *+            .            .            .
  6.110E-04 -5.246E-08 .           *+            .            .            .
  6.120E-04 -5.246E-08 .           *+            .            .            .
  6.130E-04 -5.246E-08 .           *+            .            .            .
  6.140E-04 -5.246E-08 .           *+            .            .            .
  6.150E-04 -5.246E-08 .           *+            .            .            .
  6.160E-04 -5.246E-08 .           *+            .            .            .
  6.170E-04 -5.246E-08 .           *+            .            .            .
  6.180E-04 -5.246E-08 .           *+            .            .            .
  6.190E-04 -5.246E-08 .           *+            .            .            .
  6.200E-04 -5.246E-08 .           *+            .            .            .
  6.210E-04 -5.246E-08 .           *+            .            .            .
  6.220E-04 -5.246E-08 .           *+            .            .            .
  6.230E-04 -5.246E-08 .           *+            .            .            .
  6.240E-04 -5.246E-08 .           *+            .            .            .
  6.250E-04 -5.246E-08 .           *+            .            .            .
  6.260E-04 -5.246E-08 .           *+            .            .            .
  6.270E-04 -5.246E-08 .           *+            .            .            .
  6.280E-04 -5.246E-08 .           *+            .            .            .
  6.290E-04 -5.246E-08 .           *+            .            .            .
  6.300E-04 -5.246E-08 .           *+            .            .            .
  6.310E-04 -5.246E-08 .           *+            .            .            .
  6.320E-04 -5.246E-08 .           *+            .            .            .
  6.330E-04 -5.246E-08 .           *+            .            .            .
  6.340E-04 -5.246E-08 .           *+            .            .            .
  6.350E-04 -5.246E-08 .           *+            .            .            .
  6.360E-04 -5.246E-08 .           *+            .            .            .
  6.370E-04 -5.246E-08 .           *+            .            .            .
  6.380E-04 -5.246E-08 .           *+            .            .            .
  6.390E-04 -5.246E-08 .           *+            .            .            .
  6.400E-04 -5.246E-08 .           *+            .            .            .
  6.410E-04 -5.246E-08 .           *+            .            .            .
  6.420E-04 -5.246E-08 .           *+            .            .            .
  6.430E-04 -5.246E-08 .           *+            .            .            .
  6.440E-04 -5.246E-08 .           *+            .            .            .
  6.450E-04 -5.246E-08 .           *+            .            .            .
  6.460E-04 -5.246E-08 .           *+            .            .            .
  6.470E-04 -5.246E-08 .           *+            .            .            .
  6.480E-04 -5.246E-08 .           *+            .            .            .
  6.490E-04 -5.246E-08 .           *+            .            .            .
  6.500E-04 -5.246E-08 .           *+            .            .            .
  6.510E-04 -5.246E-08 .           *+            .            .            .
  6.520E-04 -5.246E-08 .           *+            .            .            .
  6.530E-04 -5.246E-08 .           *+            .            .            .
  6.540E-04 -5.246E-08 .           *+            .            .            .
  6.550E-04 -5.246E-08 .           *+            .            .            .
  6.560E-04 -5.246E-08 .           *+            .            .            .
  6.570E-04 -5.246E-08 .           *+            .            .            .
  6.580E-04 -5.246E-08 .           *+            .            .            .
  6.590E-04 -5.246E-08 .           *+            .            .            .
  6.600E-04 -5.246E-08 .           *+            .            .            .
  6.610E-04 -5.246E-08 .           *+            .            .            .
  6.620E-04 -5.246E-08 .           *+            .            .            .
  6.630E-04 -5.246E-08 .           *+            .            .            .
  6.640E-04 -5.246E-08 .           *+            .            .            .
  6.650E-04 -5.246E-08 .           *+            .            .            .
  6.660E-04 -5.246E-08 .           *+            .            .            .
  6.670E-04 -5.246E-08 .           *+            .            .            .
  6.680E-04 -5.246E-08 .           *+            .            .            .
  6.690E-04 -5.246E-08 .           *+            .            .            .
  6.700E-04 -5.246E-08 .           *+            .            .            .
  6.710E-04 -5.246E-08 .           *+            .            .            .
  6.720E-04 -5.246E-08 .           *+            .            .            .
  6.730E-04 -5.246E-08 .           *+            .            .            .
  6.740E-04 -5.246E-08 .           *+            .            .            .
  6.750E-04 -5.246E-08 .           *+            .            .            .
  6.760E-04 -5.246E-08 .           *+            .            .            .
  6.770E-04 -5.246E-08 .           *+            .            .            .
  6.780E-04 -5.246E-08 .           *+            .            .            .
  6.790E-04 -5.246E-08 .           *+            .            .            .
  6.800E-04 -5.246E-08 .           *+            .            .            .
  6.810E-04 -5.246E-08 .           *+            .            .            .
  6.820E-04 -5.246E-08 .           *+            .            .            .
  6.830E-04 -5.246E-08 .           *+            .            .            .
  6.840E-04 -5.246E-08 .           *+            .            .            .
  6.850E-04 -5.246E-08 .           *+            .            .            .
  6.860E-04 -5.246E-08 .           *+            .            .            .
  6.870E-04 -5.246E-08 .           *+            .            .            .
  6.880E-04 -5.246E-08 .           *+            .            .            .
  6.890E-04 -5.246E-08 .           *+            .            .            .
  6.900E-04 -5.246E-08 .           *+            .            .            .
  6.910E-04 -5.246E-08 .           *+            .            .            .
  6.920E-04 -5.246E-08 .           *+            .            .            .
  6.930E-04 -5.246E-08 .           *+            .            .            .
  6.940E-04 -5.246E-08 .           *+            .            .            .
  6.950E-04 -5.246E-08 .           *+            .            .            .
  6.960E-04 -5.246E-08 .           *+            .            .            .
  6.970E-04 -5.246E-08 .           *+            .            .            .
  6.980E-04 -5.246E-08 .           *+            .            .            .
  6.990E-04 -5.246E-08 .           *+            .            .            .
  7.000E-04 -5.246E-08 .           *+            .            .            .
  7.010E-04 -5.246E-08 .           *+            .            .            .
  7.020E-04 -5.246E-08 .           *+            .            .            .
  7.030E-04 -5.246E-08 .           *+            .            .            .
  7.040E-04 -5.246E-08 .           *+            .            .            .
  7.050E-04 -5.246E-08 .           *+            .            .            .
  7.060E-04 -5.246E-08 .           *+            .            .            .
  7.070E-04 -5.246E-08 .           *+            .            .            .
  7.080E-04 -5.246E-08 .           *+            .            .            .
  7.090E-04 -5.246E-08 .           *+            .            .            .
  7.100E-04 -5.246E-08 .           *+            .            .            .
  7.110E-04 -5.246E-08 .           *+            .            .            .
  7.120E-04 -5.246E-08 .           *+            .            .            .
  7.130E-04 -5.246E-08 .           *+            .            .            .
  7.140E-04 -5.246E-08 .           *+            .            .            .
  7.150E-04 -5.246E-08 .           *+            .            .            .
  7.160E-04 -5.246E-08 .           *+            .            .            .
  7.170E-04 -5.246E-08 .           *+            .            .            .
  7.180E-04 -5.246E-08 .           *+            .            .            .
  7.190E-04 -5.246E-08 .           *+            .            .            .
  7.200E-04 -5.246E-08 .           *+            .            .            .
  7.210E-04 -5.246E-08 .           *+            .            .            .
  7.220E-04 -5.246E-08 .           *+            .            .            .
  7.230E-04 -5.246E-08 .           *+            .            .            .
  7.240E-04 -5.246E-08 .           *+            .            .            .
  7.250E-04 -5.246E-08 .           *+            .            .            .
  7.260E-04 -5.246E-08 .           *+            .            .            .
  7.270E-04 -5.246E-08 .           *+            .            .            .
  7.280E-04 -5.246E-08 .           *+            .            .            .
  7.290E-04 -5.246E-08 .           *+            .            .            .
  7.300E-04 -5.246E-08 .           *+            .            .            .
  7.310E-04 -5.246E-08 .           *+            .            .            .
  7.320E-04 -5.246E-08 .           *+            .            .            .
  7.330E-04 -5.246E-08 .           *+            .            .            .
  7.340E-04 -5.246E-08 .           *+            .            .            .
  7.350E-04 -5.246E-08 .           *+            .            .            .
  7.360E-04 -5.246E-08 .           *+            .            .            .
  7.370E-04 -5.246E-08 .           *+            .            .            .
  7.380E-04 -5.246E-08 .           *+            .            .            .
  7.390E-04 -5.246E-08 .           *+            .            .            .
  7.400E-04 -5.246E-08 .           *+            .            .            .
  7.410E-04 -5.246E-08 .           *+            .            .            .
  7.420E-04 -5.246E-08 .           *+            .            .            .
  7.430E-04 -5.246E-08 .           *+            .            .            .
  7.440E-04 -5.246E-08 .           *+            .            .            .
  7.450E-04 -5.246E-08 .           *+            .            .            .
  7.460E-04 -5.246E-08 .           *+            .            .            .
  7.470E-04 -5.246E-08 .           *+            .            .            .
  7.480E-04 -5.246E-08 .           *+            .            .            .
  7.490E-04 -5.246E-08 .           *+            .            .            .
  7.500E-04 -5.246E-08 .           *+            .            .            .
  7.510E-04 -5.246E-08 .           *+            .            .            .
  7.520E-04 -5.246E-08 .           *+            .            .            .
  7.530E-04 -5.246E-08 .           *+            .            .            .
  7.540E-04 -5.246E-08 .           *+            .            .            .
  7.550E-04 -5.246E-08 .           *+            .            .            .
  7.560E-04 -5.246E-08 .           *+            .            .            .
  7.570E-04 -5.246E-08 .           *+            .            .            .
  7.580E-04 -5.246E-08 .           *+            .            .            .
  7.590E-04 -5.246E-08 .           *+            .            .            .
  7.600E-04 -5.246E-08 .           *+            .            .            .
  7.610E-04 -5.246E-08 .           *+            .            .            .
  7.620E-04 -5.246E-08 .           *+            .            .            .
  7.630E-04 -5.246E-08 .           *+            .            .            .
  7.640E-04 -5.246E-08 .           *+            .            .            .
  7.650E-04 -5.246E-08 .           *+            .            .            .
  7.660E-04 -5.246E-08 .           *+            .            .            .
  7.670E-04 -5.246E-08 .           *+            .            .            .
  7.680E-04 -5.246E-08 .           *+            .            .            .
  7.690E-04 -5.246E-08 .           *+            .            .            .
  7.700E-04 -5.246E-08 .           *+            .            .            .
  7.710E-04 -5.246E-08 .           *+            .            .            .
  7.720E-04 -5.246E-08 .           *+            .            .            .
  7.730E-04 -5.246E-08 .           *+            .            .            .
  7.740E-04 -5.246E-08 .           *+            .            .            .
  7.750E-04 -5.246E-08 .           *+            .            .            .
  7.760E-04 -5.246E-08 .           *+            .            .            .
  7.770E-04 -5.246E-08 .           *+            .            .            .
  7.780E-04 -5.246E-08 .           *+            .            .            .
  7.790E-04 -5.246E-08 .           *+            .            .            .
  7.800E-04 -5.246E-08 .           *+            .            .            .
  7.810E-04 -5.246E-08 .           *+            .            .            .
  7.820E-04 -5.246E-08 .           *+            .            .            .
  7.830E-04 -5.246E-08 .           *+            .            .            .
  7.840E-04 -5.246E-08 .           *+            .            .            .
  7.850E-04 -5.246E-08 .           *+            .            .            .
  7.860E-04 -5.246E-08 .           *+            .            .            .
  7.870E-04 -5.246E-08 .           *+            .            .            .
  7.880E-04 -5.246E-08 .           *+            .            .            .
  7.890E-04 -5.246E-08 .           *+            .            .            .
  7.900E-04 -5.246E-08 .           *+            .            .            .
  7.910E-04 -5.246E-08 .           *+            .            .            .
  7.920E-04 -5.246E-08 .           *+            .            .            .
  7.930E-04 -5.246E-08 .           *+            .            .            .
  7.940E-04 -5.246E-08 .           *+            .            .            .
  7.950E-04 -5.246E-08 .           *+            .            .            .
  7.960E-04 -5.246E-08 .           *+            .            .            .
  7.970E-04 -5.246E-08 .           *+            .            .            .
  7.980E-04 -5.246E-08 .           *+            .            .            .
  7.990E-04 -5.246E-08 .           *+            .            .            .
  8.000E-04 -5.246E-08 .           *+            .            .            .
  8.010E-04 -5.246E-08 .           *+            .            .            .
  8.020E-04 -5.246E-08 .           *+            .            .            .
  8.030E-04 -5.246E-08 .           *+            .            .            .
  8.040E-04 -5.246E-08 .           *+            .            .            .
  8.050E-04 -5.246E-08 .           *+            .            .            .
  8.060E-04 -5.246E-08 .           *+            .            .            .
  8.070E-04 -5.246E-08 .           *+            .            .            .
  8.080E-04 -5.246E-08 .           *+            .            .            .
  8.090E-04 -5.246E-08 .           *+            .            .            .
  8.100E-04 -5.246E-08 .           *+            .            .            .
  8.110E-04 -5.246E-08 .           *+            .            .            .
  8.120E-04 -5.246E-08 .           *+            .            .            .
  8.130E-04 -5.246E-08 .           *+            .            .            .
  8.140E-04 -5.246E-08 .           *+            .            .            .
  8.150E-04 -5.246E-08 .           *+            .            .            .
  8.160E-04 -5.246E-08 .           *+            .            .            .
  8.170E-04 -5.246E-08 .           *+            .            .            .
  8.180E-04 -5.246E-08 .           *+            .            .            .
  8.190E-04 -5.246E-08 .           *+            .            .            .
  8.200E-04 -5.246E-08 .           *+            .            .            .
  8.210E-04 -5.246E-08 .           *+            .            .            .
  8.220E-04 -5.246E-08 .           *+            .            .            .
  8.230E-04 -5.246E-08 .           *+            .            .            .
  8.240E-04 -5.246E-08 .           *+            .            .            .
  8.250E-04 -5.246E-08 .           *+            .            .            .
  8.260E-04 -5.246E-08 .           *+            .            .            .
  8.270E-04 -5.246E-08 .           *+            .            .            .
  8.280E-04 -5.246E-08 .           *+            .            .            .
  8.290E-04 -5.246E-08 .           *+            .            .            .
  8.300E-04 -5.246E-08 .           *+            .            .            .
  8.310E-04 -5.246E-08 .           *+            .            .            .
  8.320E-04 -5.246E-08 .           *+            .            .            .
  8.330E-04 -5.246E-08 .           *+            .            .            .
  8.340E-04 -5.246E-08 .           *+            .            .            .
  8.350E-04 -5.246E-08 .           *+            .            .            .
  8.360E-04 -5.246E-08 .           *+            .            .            .
  8.370E-04 -5.246E-08 .           *+            .            .            .
  8.380E-04 -5.246E-08 .           *+            .            .            .
  8.390E-04 -5.246E-08 .           *+            .            .            .
  8.400E-04 -5.246E-08 .           *+            .            .            .
  8.410E-04 -5.246E-08 .           *+            .            .            .
  8.420E-04 -5.246E-08 .           *+            .            .            .
  8.430E-04 -5.246E-08 .           *+            .            .            .
  8.440E-04 -5.246E-08 .           *+            .            .            .
  8.450E-04 -5.246E-08 .           *+            .            .            .
  8.460E-04 -5.246E-08 .           *+            .            .            .
  8.470E-04 -5.246E-08 .           *+            .            .            .
  8.480E-04 -5.246E-08 .           *+            .            .            .
  8.490E-04 -5.246E-08 .           *+            .            .            .
  8.500E-04 -5.246E-08 .           *+            .            .            .
  8.510E-04 -5.246E-08 .           *+            .            .            .
  8.520E-04 -5.246E-08 .           *+            .            .            .
  8.530E-04 -5.246E-08 .           *+            .            .            .
  8.540E-04 -5.246E-08 .           *+            .            .            .
  8.550E-04 -5.246E-08 .           *+            .            .            .
  8.560E-04 -5.246E-08 .           *+            .            .            .
  8.570E-04 -5.246E-08 .           *+            .            .            .
  8.580E-04 -5.246E-08 .           *+            .            .            .
  8.590E-04 -5.246E-08 .           *+            .            .            .
  8.600E-04 -5.246E-08 .           *+            .            .            .
  8.610E-04 -5.246E-08 .           *+            .            .            .
  8.620E-04 -5.246E-08 .           *+            .            .            .
  8.630E-04 -5.246E-08 .           *+            .            .            .
  8.640E-04 -5.246E-08 .           *+            .            .            .
  8.650E-04 -5.246E-08 .           *+            .            .            .
  8.660E-04 -5.246E-08 .           *+            .            .            .
  8.670E-04 -5.246E-08 .           *+            .            .            .
  8.680E-04 -5.246E-08 .           *+            .            .            .
  8.690E-04 -5.246E-08 .           *+            .            .            .
  8.700E-04 -5.246E-08 .           *+            .            .            .
  8.710E-04 -5.246E-08 .           *+            .            .            .
  8.720E-04 -5.246E-08 .           *+            .            .            .
  8.730E-04 -5.246E-08 .           *+            .            .            .
  8.740E-04 -5.246E-08 .           *+            .            .            .
  8.750E-04 -5.246E-08 .           *+            .            .            .
  8.760E-04 -5.246E-08 .           *+            .            .            .
  8.770E-04 -5.246E-08 .           *+            .            .            .
  8.780E-04 -5.246E-08 .           *+            .            .            .
  8.790E-04 -5.246E-08 .           *+            .            .            .
  8.800E-04 -5.246E-08 .           *+            .            .            .
  8.810E-04 -5.246E-08 .           *+            .            .            .
  8.820E-04 -5.246E-08 .           *+            .            .            .
  8.830E-04 -5.246E-08 .           *+            .            .            .
  8.840E-04 -5.246E-08 .           *+            .            .            .
  8.850E-04 -5.246E-08 .           *+            .            .            .
  8.860E-04 -5.246E-08 .           *+            .            .            .
  8.870E-04 -5.246E-08 .           *+            .            .            .
  8.880E-04 -5.246E-08 .           *+            .            .            .
  8.890E-04 -5.246E-08 .           *+            .            .            .
  8.900E-04 -5.246E-08 .           *+            .            .            .
  8.910E-04 -5.246E-08 .           *+            .            .            .
  8.920E-04 -5.246E-08 .           *+            .            .            .
  8.930E-04 -5.246E-08 .           *+            .            .            .
  8.940E-04 -5.246E-08 .           *+            .            .            .
  8.950E-04 -5.246E-08 .           *+            .            .            .
  8.960E-04 -5.246E-08 .           *+            .            .            .
  8.970E-04 -5.246E-08 .           *+            .            .            .
  8.980E-04 -5.246E-08 .           *+            .            .            .
  8.990E-04 -5.246E-08 .           *+            .            .            .
  9.000E-04 -5.246E-08 .           *+            .            .            .
  9.010E-04 -5.246E-08 .           *+            .            .            .
  9.020E-04 -5.246E-08 .           *+            .            .            .
  9.030E-04 -5.246E-08 .           *+            .            .            .
  9.040E-04 -5.246E-08 .           *+            .            .            .
  9.050E-04 -5.246E-08 .           *+            .            .            .
  9.060E-04 -5.246E-08 .           *+            .            .            .
  9.070E-04 -5.246E-08 .           *+            .            .            .
  9.080E-04 -5.246E-08 .           *+            .            .            .
  9.090E-04 -5.246E-08 .           *+            .            .            .
  9.100E-04 -5.246E-08 .           *+            .            .            .
  9.110E-04 -5.246E-08 .           *+            .            .            .
  9.120E-04 -5.246E-08 .           *+            .            .            .
  9.130E-04 -5.246E-08 .           *+            .            .            .
  9.140E-04 -5.246E-08 .           *+            .            .            .
  9.150E-04 -5.246E-08 .           *+            .            .            .
  9.160E-04 -5.246E-08 .           *+            .            .            .
  9.170E-04 -5.246E-08 .           *+            .            .            .
  9.180E-04 -5.246E-08 .           *+            .            .            .
  9.190E-04 -5.246E-08 .           *+            .            .            .
  9.200E-04 -5.246E-08 .           *+            .            .            .
  9.210E-04 -5.246E-08 .           *+            .            .            .
  9.220E-04 -5.246E-08 .           *+            .            .            .
  9.230E-04 -5.246E-08 .           *+            .            .            .
  9.240E-04 -5.246E-08 .           *+            .            .            .
  9.250E-04 -5.246E-08 .           *+            .            .            .
  9.260E-04 -5.246E-08 .           *+            .            .            .
  9.270E-04 -5.246E-08 .           *+            .            .            .
  9.280E-04 -5.246E-08 .           *+            .            .            .
  9.290E-04 -5.246E-08 .           *+            .            .            .
  9.300E-04 -5.246E-08 .           *+            .            .            .
  9.310E-04 -5.246E-08 .           *+            .            .            .
  9.320E-04 -5.246E-08 .           *+            .            .            .
  9.330E-04 -5.246E-08 .           *+            .            .            .
  9.340E-04 -5.246E-08 .           *+            .            .            .
  9.350E-04 -5.246E-08 .           *+            .            .            .
  9.360E-04 -5.246E-08 .           *+            .            .            .
  9.370E-04 -5.246E-08 .           *+            .            .            .
  9.380E-04 -5.246E-08 .           *+            .            .            .
  9.390E-04 -5.246E-08 .           *+            .            .            .
  9.400E-04 -5.246E-08 .           *+            .            .            .
  9.410E-04 -5.246E-08 .           *+            .            .            .
  9.420E-04 -5.246E-08 .           *+            .            .            .
  9.430E-04 -5.246E-08 .           *+            .            .            .
  9.440E-04 -5.246E-08 .           *+            .            .            .
  9.450E-04 -5.246E-08 .           *+            .            .            .
  9.460E-04 -5.246E-08 .           *+            .            .            .
  9.470E-04 -5.246E-08 .           *+            .            .            .
  9.480E-04 -5.246E-08 .           *+            .            .            .
  9.490E-04 -5.246E-08 .           *+            .            .            .
  9.500E-04 -5.246E-08 .           *+            .            .            .
  9.510E-04 -5.246E-08 .           *+            .            .            .
  9.520E-04 -5.246E-08 .           *+            .            .            .
  9.530E-04 -5.246E-08 .           *+            .            .            .
  9.540E-04 -5.246E-08 .           *+            .            .            .
  9.550E-04 -5.246E-08 .           *+            .            .            .
  9.560E-04 -5.246E-08 .           *+            .            .            .
  9.570E-04 -5.246E-08 .           *+            .            .            .
  9.580E-04 -5.246E-08 .           *+            .            .            .
  9.590E-04 -5.246E-08 .           *+            .            .            .
  9.600E-04 -5.246E-08 .           *+            .            .            .
  9.610E-04 -5.246E-08 .           *+            .            .            .
  9.620E-04 -5.246E-08 .           *+            .            .            .
  9.630E-04 -5.246E-08 .           *+            .            .            .
  9.640E-04 -5.246E-08 .           *+            .            .            .
  9.650E-04 -5.246E-08 .           *+            .            .            .
  9.660E-04 -5.246E-08 .           *+            .            .            .
  9.670E-04 -5.246E-08 .           *+            .            .            .
  9.680E-04 -5.246E-08 .           *+            .            .            .
  9.690E-04 -5.246E-08 .           *+            .            .            .
  9.700E-04 -5.246E-08 .           *+            .            .            .
  9.710E-04 -5.246E-08 .           *+            .            .            .
  9.720E-04 -5.246E-08 .           *+            .            .            .
  9.730E-04 -5.246E-08 .           *+            .            .            .
  9.740E-04 -5.246E-08 .           *+            .            .            .
  9.750E-04 -5.246E-08 .           *+            .            .            .
  9.760E-04 -5.246E-08 .           *+            .            .            .
  9.770E-04 -5.246E-08 .           *+            .            .            .
  9.780E-04 -5.246E-08 .           *+            .            .            .
  9.790E-04 -5.246E-08 .           *+            .            .            .
  9.800E-04 -5.246E-08 .           *+            .            .            .
  9.810E-04 -5.246E-08 .           *+            .            .            .
  9.820E-04 -5.246E-08 .           *+            .            .            .
  9.830E-04 -5.246E-08 .           *+            .            .            .
  9.840E-04 -5.246E-08 .           *+            .            .            .
  9.850E-04 -5.246E-08 .           *+            .            .            .
  9.860E-04 -5.246E-08 .           *+            .            .            .
  9.870E-04 -5.246E-08 .           *+            .            .            .
  9.880E-04 -5.246E-08 .           *+            .            .            .
  9.890E-04 -5.246E-08 .           *+            .            .            .
  9.900E-04 -5.246E-08 .           *+            .            .            .
  9.910E-04 -5.246E-08 .           *+            .            .            .
  9.920E-04 -5.246E-08 .           *+            .            .            .
  9.930E-04 -5.246E-08 .           *+            .            .            .
  9.940E-04 -5.246E-08 .           *+            .            .            .
  9.950E-04 -5.246E-08 .           *+            .            .            .
  9.960E-04 -5.246E-08 .           *+            .            .            .
  9.970E-04 -5.246E-08 .           *+            .            .            .
  9.980E-04 -5.246E-08 .           *+            .            .            .
  9.990E-04 -5.246E-08 .           *+            .            .            .
  1.000E-03 -5.246E-08 .           *+            .            .            .
  1.001E-03 -4.197E-08 .            . *+         .            .            .
  1.002E-03 -3.148E-08 .            .    X       .            .            .
  1.003E-03 -2.099E-08 .            .       X    .            .            .
  1.004E-03 -1.049E-08 .            .         X  .            .            .
  1.005E-03  4.253E-14 .            .            X            .            .
  1.006E-03  1.049E-08 .            .            .  X         .            .
  1.007E-03  2.099E-08 .            .            .    X       .            .
  1.008E-03  3.148E-08 .            .            .       X    .            .
  1.009E-03  4.197E-08 .            .            .         +* .            .
  1.010E-03  5.246E-08 .            .            .            +*           .
  1.011E-03  5.246E-08 .            .            .            +*           .
  1.012E-03  5.246E-08 .            .            .            +*           .
  1.013E-03  5.246E-08 .            .            .            +*           .
  1.014E-03  5.246E-08 .            .            .            +*           .
[...]
  4.747E-03 -5.246E-08 .           *+            .            .            .
  4.748E-03 -5.246E-08 .           *+            .            .            .
  4.749E-03 -5.246E-08 .           *+            .            .            .
  4.750E-03 -5.246E-08 .           *+            .            .            .
  4.751E-03 -5.246E-08 .           *+            .            .            .
  4.752E-03 -5.246E-08 .           *+            .            .            .
  4.753E-03 -5.246E-08 .           *+            .            .            .
  4.754E-03 -5.246E-08 .           *+            .            .            .
  4.755E-03 -5.246E-08 .           *+            .            .            .
  4.756E-03 -5.246E-08 .           *+            .            .            .
  4.757E-03 -5.246E-08 .           *+            .            .            .
  4.758E-03 -5.246E-08 .           *+            .            .            .
  4.759E-03 -5.246E-08 .           *+            .            .            .
  4.760E-03 -5.246E-08 .           *+            .            .            .
  4.761E-03 -5.246E-08 .           *+            .            .            .
  4.762E-03 -5.246E-08 .           *+            .            .            .
  4.763E-03 -5.246E-08 .           *+            .            .            .
  4.764E-03 -5.246E-08 .           *+            .            .            .
  4.765E-03 -5.246E-08 .           *+            .            .            .
  4.766E-03 -5.246E-08 .           *+            .            .            .
  4.767E-03 -5.246E-08 .           *+            .            .            .
  4.768E-03 -5.246E-08 .           *+            .            .            .
  4.769E-03 -5.246E-08 .           *+            .            .            .
  4.770E-03 -5.246E-08 .           *+            .            .            .
  4.771E-03 -5.246E-08 .           *+            .            .            .
  4.772E-03 -5.246E-08 .           *+            .            .            .
  4.773E-03 -5.246E-08 .           *+            .            .            .
  4.774E-03 -5.246E-08 .           *+            .            .            .
  4.775E-03 -5.246E-08 .           *+            .            .            .
  4.776E-03 -5.246E-08 .           *+            .            .            .
  4.777E-03 -5.246E-08 .           *+            .            .            .
  4.778E-03 -5.246E-08 .           *+            .            .            .
  4.779E-03 -5.246E-08 .           *+            .            .            .
  4.780E-03 -5.246E-08 .           *+            .            .            .
  4.781E-03 -5.246E-08 .           *+            .            .            .
  4.782E-03 -5.246E-08 .           *+            .            .            .
  4.783E-03 -5.246E-08 .           *+            .            .            .
  4.784E-03 -5.246E-08 .           *+            .            .            .
  4.785E-03 -5.246E-08 .           *+            .            .            .
  4.786E-03 -5.246E-08 .           *+            .            .            .
  4.787E-03 -5.246E-08 .           *+            .            .            .
  4.788E-03 -5.246E-08 .           *+            .            .            .
  4.789E-03 -5.246E-08 .           *+            .            .            .
  4.790E-03 -5.246E-08 .           *+            .            .            .
  4.791E-03 -5.246E-08 .           *+            .            .            .
  4.792E-03 -5.246E-08 .           *+            .            .            .
  4.793E-03 -5.246E-08 .           *+            .            .            .
  4.794E-03 -5.246E-08 .           *+            .            .            .
  4.795E-03 -5.246E-08 .           *+            .            .            .
  4.796E-03 -5.246E-08 .           *+            .            .            .
  4.797E-03 -5.246E-08 .           *+            .            .            .
  4.798E-03 -5.246E-08 .           *+            .            .            .
  4.799E-03 -5.246E-08 .           *+            .            .            .
  4.800E-03 -5.246E-08 .           *+            .            .            .
  4.801E-03 -5.246E-08 .           *+            .            .            .
  4.802E-03 -5.246E-08 .           *+            .            .            .
  4.803E-03 -5.246E-08 .           *+            .            .            .
  4.804E-03 -5.246E-08 .           *+            .            .            .
  4.805E-03 -5.246E-08 .           *+            .            .            .
  4.806E-03 -5.246E-08 .           *+            .            .            .
  4.807E-03 -5.246E-08 .           *+            .            .            .
  4.808E-03 -5.246E-08 .           *+            .            .            .
  4.809E-03 -5.246E-08 .           *+            .            .            .
  4.810E-03 -5.246E-08 .           *+            .            .            .
  4.811E-03 -5.246E-08 .           *+            .            .            .
  4.812E-03 -5.246E-08 .           *+            .            .            .
  4.813E-03 -5.246E-08 .           *+            .            .            .
  4.814E-03 -5.246E-08 .           *+            .            .            .
  4.815E-03 -5.246E-08 .           *+            .            .            .
  4.816E-03 -5.246E-08 .           *+            .            .            .
  4.817E-03 -5.246E-08 .           *+            .            .            .
  4.818E-03 -5.246E-08 .           *+            .            .            .
  4.819E-03 -5.246E-08 .           *+            .            .            .
  4.820E-03 -5.246E-08 .           *+            .            .            .
  4.821E-03 -5.246E-08 .           *+            .            .            .
  4.822E-03 -5.246E-08 .           *+            .            .            .
  4.823E-03 -5.246E-08 .           *+            .            .            .
  4.824E-03 -5.246E-08 .           *+            .            .            .
  4.825E-03 -5.246E-08 .           *+            .            .            .
  4.826E-03 -5.246E-08 .           *+            .            .            .
  4.827E-03 -5.246E-08 .           *+            .            .            .
  4.828E-03 -5.246E-08 .           *+            .            .            .
  4.829E-03 -5.246E-08 .           *+            .            .            .
  4.830E-03 -5.246E-08 .           *+            .            .            .
  4.831E-03 -5.246E-08 .           *+            .            .            .
  4.832E-03 -5.246E-08 .           *+            .            .            .
  4.833E-03 -5.246E-08 .           *+            .            .            .
  4.834E-03 -5.246E-08 .           *+            .            .            .
  4.835E-03 -5.246E-08 .           *+            .            .            .
  4.836E-03 -5.246E-08 .           *+            .            .            .
  4.837E-03 -5.246E-08 .           *+            .            .            .
  4.838E-03 -5.246E-08 .           *+            .            .            .
  4.839E-03 -5.246E-08 .           *+            .            .            .
  4.840E-03 -5.246E-08 .           *+            .            .            .
  4.841E-03 -5.246E-08 .           *+            .            .            .
  4.842E-03 -5.246E-08 .           *+            .            .            .
  4.843E-03 -5.246E-08 .           *+            .            .            .
  4.844E-03 -5.246E-08 .           *+            .            .            .
  4.845E-03 -5.246E-08 .           *+            .            .            .
  4.846E-03 -5.246E-08 .           *+            .            .            .
  4.847E-03 -5.246E-08 .           *+            .            .            .
  4.848E-03 -5.246E-08 .           *+            .            .            .
  4.849E-03 -5.246E-08 .           *+            .            .            .
  4.850E-03 -5.246E-08 .           *+            .            .            .
  4.851E-03 -5.246E-08 .           *+            .            .            .
  4.852E-03 -5.246E-08 .           *+            .            .            .
  4.853E-03 -5.246E-08 .           *+            .            .            .
  4.854E-03 -5.246E-08 .           *+            .            .            .
  4.855E-03 -5.246E-08 .           *+            .            .            .
  4.856E-03 -5.246E-08 .           *+            .            .            .
  4.857E-03 -5.246E-08 .           *+            .            .            .
  4.858E-03 -5.246E-08 .           *+            .            .            .
  4.859E-03 -5.246E-08 .           *+            .            .            .
  4.860E-03 -5.246E-08 .           *+            .            .            .
  4.861E-03 -5.246E-08 .           *+            .            .            .
  4.862E-03 -5.246E-08 .           *+            .            .            .
  4.863E-03 -5.246E-08 .           *+            .            .            .
  4.864E-03 -5.246E-08 .           *+            .            .            .
  4.865E-03 -5.246E-08 .           *+            .            .            .
  4.866E-03 -5.246E-08 .           *+            .            .            .
  4.867E-03 -5.246E-08 .           *+            .            .            .
  4.868E-03 -5.246E-08 .           *+            .            .            .
  4.869E-03 -5.246E-08 .           *+            .            .            .
  4.870E-03 -5.246E-08 .           *+            .            .            .
  4.871E-03 -5.246E-08 .           *+            .            .            .
  4.872E-03 -5.246E-08 .           *+            .            .            .
  4.873E-03 -5.246E-08 .           *+            .            .            .
  4.874E-03 -5.246E-08 .           *+            .            .            .
  4.875E-03 -5.246E-08 .           *+            .            .            .
  4.876E-03 -5.246E-08 .           *+            .            .            .
  4.877E-03 -5.246E-08 .           *+            .            .            .
  4.878E-03 -5.246E-08 .           *+            .            .            .
  4.879E-03 -5.246E-08 .           *+            .            .            .
  4.880E-03 -5.246E-08 .           *+            .            .            .
  4.881E-03 -5.246E-08 .           *+            .            .            .
  4.882E-03 -5.246E-08 .           *+            .            .            .
  4.883E-03 -5.246E-08 .           *+            .            .            .
  4.884E-03 -5.246E-08 .           *+            .            .            .
  4.885E-03 -5.246E-08 .           *+            .            .            .
  4.886E-03 -5.246E-08 .           *+            .            .            .
  4.887E-03 -5.246E-08 .           *+            .            .            .
  4.888E-03 -5.246E-08 .           *+            .            .            .
  4.889E-03 -5.246E-08 .           *+            .            .            .
  4.890E-03 -5.246E-08 .           *+            .            .            .
  4.891E-03 -5.246E-08 .           *+            .            .            .
  4.892E-03 -5.246E-08 .           *+            .            .            .
  4.893E-03 -5.246E-08 .           *+            .            .            .
  4.894E-03 -5.246E-08 .           *+            .            .            .
  4.895E-03 -5.246E-08 .           *+            .            .            .
  4.896E-03 -5.246E-08 .           *+            .            .            .
  4.897E-03 -5.246E-08 .           *+            .            .            .
  4.898E-03 -5.246E-08 .           *+            .            .            .
  4.899E-03 -5.246E-08 .           *+            .            .            .
  4.900E-03 -5.246E-08 .           *+            .            .            .
  4.901E-03 -5.246E-08 .           *+            .            .            .
  4.902E-03 -5.246E-08 .           *+            .            .            .
  4.903E-03 -5.246E-08 .           *+            .            .            .
  4.904E-03 -5.246E-08 .           *+            .            .            .
  4.905E-03 -5.246E-08 .           *+            .            .            .
  4.906E-03 -5.246E-08 .           *+            .            .            .
  4.907E-03 -5.246E-08 .           *+            .            .            .
  4.908E-03 -5.246E-08 .           *+            .            .            .
  4.909E-03 -5.246E-08 .           *+            .            .            .
  4.910E-03 -5.246E-08 .           *+            .            .            .
  4.911E-03 -5.246E-08 .           *+            .            .            .
  4.912E-03 -5.246E-08 .           *+            .            .            .
  4.913E-03 -5.246E-08 .           *+            .            .            .
  4.914E-03 -5.246E-08 .           *+            .            .            .
  4.915E-03 -5.246E-08 .           *+            .            .            .
  4.916E-03 -5.246E-08 .           *+            .            .            .
  4.917E-03 -5.246E-08 .           *+            .            .            .
  4.918E-03 -5.246E-08 .           *+            .            .            .
  4.919E-03 -5.246E-08 .           *+            .            .            .
  4.920E-03 -5.246E-08 .           *+            .            .            .
  4.921E-03 -5.246E-08 .           *+            .            .            .
  4.922E-03 -5.246E-08 .           *+            .            .            .
  4.923E-03 -5.246E-08 .           *+            .            .            .
  4.924E-03 -5.246E-08 .           *+            .            .            .
  4.925E-03 -5.246E-08 .           *+            .            .            .
  4.926E-03 -5.246E-08 .           *+            .            .            .
  4.927E-03 -5.246E-08 .           *+            .            .            .
  4.928E-03 -5.246E-08 .           *+            .            .            .
  4.929E-03 -5.246E-08 .           *+            .            .            .
  4.930E-03 -5.246E-08 .           *+            .            .            .
  4.931E-03 -5.246E-08 .           *+            .            .            .
  4.932E-03 -5.246E-08 .           *+            .            .            .
  4.933E-03 -5.246E-08 .           *+            .            .            .
  4.934E-03 -5.246E-08 .           *+            .            .            .
  4.935E-03 -5.246E-08 .           *+            .            .            .
  4.936E-03 -5.246E-08 .           *+            .            .            .
  4.937E-03 -5.246E-08 .           *+            .            .            .
  4.938E-03 -5.246E-08 .           *+            .            .            .
  4.939E-03 -5.246E-08 .           *+            .            .            .
  4.940E-03 -5.246E-08 .           *+            .            .            .
  4.941E-03 -5.246E-08 .           *+            .            .            .
  4.942E-03 -5.246E-08 .           *+            .            .            .
  4.943E-03 -5.246E-08 .           *+            .            .            .
  4.944E-03 -5.246E-08 .           *+            .            .            .
  4.945E-03 -5.246E-08 .           *+            .            .            .
  4.946E-03 -5.246E-08 .           *+            .            .            .
  4.947E-03 -5.246E-08 .           *+            .            .            .
  4.948E-03 -5.246E-08 .           *+            .            .            .
  4.949E-03 -5.246E-08 .           *+            .            .            .
  4.950E-03 -5.246E-08 .           *+            .            .            .
  4.951E-03 -5.246E-08 .           *+            .            .            .
  4.952E-03 -5.246E-08 .           *+            .            .            .
  4.953E-03 -5.246E-08 .           *+            .            .            .
  4.954E-03 -5.246E-08 .           *+            .            .            .
  4.955E-03 -5.246E-08 .           *+            .            .            .
  4.956E-03 -5.246E-08 .           *+            .            .            .
  4.957E-03 -5.246E-08 .           *+            .            .            .
  4.958E-03 -5.246E-08 .           *+            .            .            .
  4.959E-03 -5.246E-08 .           *+            .            .            .
  4.960E-03 -5.246E-08 .           *+            .            .            .
  4.961E-03 -5.246E-08 .           *+            .            .            .
  4.962E-03 -5.246E-08 .           *+            .            .            .
  4.963E-03 -5.246E-08 .           *+            .            .            .
  4.964E-03 -5.246E-08 .           *+            .            .            .
  4.965E-03 -5.246E-08 .           *+            .            .            .
  4.966E-03 -5.246E-08 .           *+            .            .            .
  4.967E-03 -5.246E-08 .           *+            .            .            .
  4.968E-03 -5.246E-08 .           *+            .            .            .
  4.969E-03 -5.246E-08 .           *+            .            .            .
  4.970E-03 -5.246E-08 .           *+            .            .            .
  4.971E-03 -5.246E-08 .           *+            .            .            .
  4.972E-03 -5.246E-08 .           *+            .            .            .
  4.973E-03 -5.246E-08 .           *+            .            .            .
  4.974E-03 -5.246E-08 .           *+            .            .            .
  4.975E-03 -5.246E-08 .           *+            .            .            .
  4.976E-03 -5.246E-08 .           *+            .            .            .
  4.977E-03 -5.246E-08 .           *+            .            .            .
  4.978E-03 -5.246E-08 .           *+            .            .            .
  4.979E-03 -5.246E-08 .           *+            .            .            .
  4.980E-03 -5.246E-08 .           *+            .            .            .
  4.981E-03 -5.246E-08 .           *+            .            .            .
  4.982E-03 -5.246E-08 .           *+            .            .            .
  4.983E-03 -5.246E-08 .           *+            .            .            .
  4.984E-03 -5.246E-08 .           *+            .            .            .
  4.985E-03 -5.246E-08 .           *+            .            .            .
  4.986E-03 -5.246E-08 .           *+            .            .            .
  4.987E-03 -5.246E-08 .           *+            .            .            .
  4.988E-03 -5.246E-08 .           *+            .            .            .
  4.989E-03 -5.246E-08 .           *+            .            .            .
  4.990E-03 -5.246E-08 .           *+            .            .            .
  4.991E-03 -5.246E-08 .           *+            .            .            .
  4.992E-03 -5.246E-08 .           *+            .            .            .
  4.993E-03 -5.246E-08 .           *+            .            .            .
  4.994E-03 -5.246E-08 .           *+            .            .            .
  4.995E-03 -5.246E-08 .           *+            .            .            .
  4.996E-03 -5.246E-08 .           *+            .            .            .
  4.997E-03 -5.246E-08 .           *+            .            .            .
  4.998E-03 -5.246E-08 .           *+            .            .            .
  4.999E-03 -5.246E-08 .           *+            .            .            .
  5.000E-03 -5.246E-08 .           *+            .            .            .
                       - - - - - - - - - - - - - - - - - - - - - - - - - - - 




          JOB CONCLUDED

**** 11/13/15 00:23:45 ****** PSpice Lite (October 2012) ****** ID# 10813 ****

 Inverting Amplifier


 ****     JOB STATISTICS SUMMARY


******************************************************************************



  Total job time (using Solver 1)   =         .08
